                                  MODFLOW-NWT-SWR1 
      U.S. GEOLOGICAL SURVEY MODULAR FINITE-DIFFERENCE GROUNDWATER-FLOW MODEL
                             VERSION 1.1.4 4/01/2018
                    BASED ON MODFLOW-2005 VERSION 1.12.00 02/03/2017

 LIST FILE: Model1.lst
                         UNIT   11

 OPENING Model1.cbc
 FILE TYPE:DATA(BINARY)   UNIT    9   STATUS:REPLACE
 FORMAT:BINARY                 ACCESS:SEQUENTIAL          

 OPENING Model1.dis
 FILE TYPE:DIS   UNIT   12   STATUS:OLD    
 FORMAT:FORMATTED              ACCESS:SEQUENTIAL          

 OPENING Model1.bas
 FILE TYPE:BAS6   UNIT   13   STATUS:OLD    
 FORMAT:FORMATTED              ACCESS:SEQUENTIAL          

 OPENING Model1.oc
 FILE TYPE:OC   UNIT   39   STATUS:OLD    
 FORMAT:FORMATTED              ACCESS:SEQUENTIAL          

 OPENING Model1.bhd
 FILE TYPE:DATA(BINARY)   UNIT   37   STATUS:REPLACE
 FORMAT:BINARY                 ACCESS:SEQUENTIAL          

 OPENING Model1.fdn
 FILE TYPE:DATA   UNIT   38   STATUS:REPLACE
 FORMAT:FORMATTED              ACCESS:SEQUENTIAL          

 OPENING Model1.nwt
 FILE TYPE:NWT   UNIT  133   STATUS:OLD    
 FORMAT:FORMATTED              ACCESS:SEQUENTIAL          

 OPENING Model1.upw
 FILE TYPE:UPW   UNIT  134   STATUS:OLD    
 FORMAT:FORMATTED              ACCESS:SEQUENTIAL          

 OPENING Model1.lmt
 FILE TYPE:LMT6   UNIT  135   STATUS:OLD    
 FORMAT:FORMATTED              ACCESS:SEQUENTIAL          

 OPENING Model1.ghb
 FILE TYPE:GHB   UNIT   19   STATUS:OLD    
 FORMAT:FORMATTED              ACCESS:SEQUENTIAL          

 OPENING Model1.riv
 FILE TYPE:RIV   UNIT   21   STATUS:OLD    
 FORMAT:FORMATTED              ACCESS:SEQUENTIAL          

 OPENING Model1.rch
 FILE TYPE:RCH   UNIT   24   STATUS:OLD    
 FORMAT:FORMATTED              ACCESS:SEQUENTIAL          

 OPENING Model1.ob_hob
 FILE TYPE:HOB   UNIT   41   STATUS:OLD    
 FORMAT:FORMATTED              ACCESS:SEQUENTIAL          

 OPENING Model1.hob_out
 FILE TYPE:DATA   UNIT   42   STATUS:REPLACE
 FORMAT:FORMATTED              ACCESS:SEQUENTIAL          

 BAS -- BASIC PACKAGE, VERSION 1.1.4, 4/01/2018 INPUT READ FROM UNIT   13
 
 MODFLOW was compiled using mixed precision
 Precision of REAL variables:           6
 Precision of DOUBLE PRECISION variables:          15

 DISCRETIZATION INPUT DATA READ FROM UNIT   12
 # Discretization File created on 29/01/2021 by ModelMuse version 4.3.0.0.
 # Upper left corner: (232195, 8918800)
 # Lower left corner: (232195, 8917310)
 # Upper right corner: (234595, 8918800)
 # Lower right corner: (234595, 8917310)
 # Grid angle (in degrees counterclockwise): 0
    4 LAYERS        89 ROWS       186 COLUMNS
    4 STRESS PERIOD(S) IN SIMULATION
 MODEL TIME UNIT IS DAYS
 MODEL LENGTH UNIT IS METERS
  Confining bed flag for each layer:
   0   0   0   0



                               DELR
 READING ON UNIT   12 WITH FORMAT: (FREE)              
   25.000       25.000       25.000       25.000       25.000    
   25.000       25.000       25.000       25.000       25.000    
   25.000       25.000       25.000       22.292       18.577    
   15.481       12.900       10.750       10.000       10.000    
   10.000       10.000       10.000       10.000       10.000    
   10.000       10.000       10.000       10.000       10.000    
   10.000       10.000       10.000       10.000       10.000    
   10.000       10.000       10.000       10.000       10.000    
   10.000       10.000       10.000       10.000       10.000    
   10.000       10.000       10.000       10.000       10.000    
   10.000       10.000       10.000       10.000       10.000    
   10.000       10.000       10.000       10.000       10.000    
   10.000       10.000       10.000       10.000       10.000    
   10.000       10.000       10.000       10.000       10.000    
   10.000       10.000       10.000       10.000       10.000    
   10.000       10.000       10.000       10.000       10.000    
   10.000       10.000       10.000       10.000       10.000    
   10.000       10.000       10.000       10.000       10.000    
   10.000       10.000       10.000       10.000       10.000    
   10.000       10.000       10.000       10.000       10.000    
   10.000       10.000       10.000       10.000       10.000    
   10.000       10.000       10.000       10.000       10.000    
   10.000       10.000       10.000       10.000       10.000    
   10.000       10.000       10.000       10.000       10.000    
   10.000       10.000       10.000       10.000       10.000    
   10.000       10.000       10.000       10.000       10.000    
   10.000       10.000       10.000       10.000       10.000    
   10.000       10.000       10.000       10.000       10.000    
   10.000       10.000       10.000       10.000       10.000    
   10.000       10.000       10.000       10.000       10.000    
   10.000       10.000       10.000       10.000       10.000    
   10.000       10.000       10.000       10.000       10.000    
   10.000       10.000       10.750       12.900       15.481    
   18.577       22.292       25.000       25.000       25.000    
   25.000       25.000       25.000       25.000       25.000    
   25.000       25.000       25.000       25.000       25.000    
   25.000       25.000       25.000       25.000       25.000    
   25.000    



                               DELC
 READING ON UNIT   12 WITH FORMAT: (FREE)              
   25.000       25.000       25.000       25.000       25.000    
   25.000       25.000       25.000       25.000       25.000    
   25.000       25.000       25.000       25.000       25.000    
   25.000       25.000       25.000       25.000       25.000    
   25.000       25.000       25.000       25.000       22.292    
   18.577       15.481       12.900       10.750       10.000    
   10.000       10.000       10.000       10.000       10.000    
   10.000       10.000       10.000       10.000       10.000    
   10.000       10.000       10.000       10.000       10.000    
   10.000       10.000       10.000       10.000       10.000    
   10.000       10.000       10.000       10.000       10.000    
   10.000       10.000       10.000       10.000       10.000    
   10.000       10.000       10.000       10.000       10.000    
   10.000       10.000       10.000       10.000       10.000    
   10.000       10.000       10.750       12.900       15.481    
   18.577       22.292       25.000       25.000       25.000    
   25.000       25.000       25.000       25.000       25.000    
   25.000       25.000       25.000       25.000    



           TOP ELEVATION OF LAYER 1
 READING ON UNIT   12 WITH FORMAT: (FREE)              

            1           2           3           4           5           6           7           8           9          10
           11          12          13          14          15          16          17          18          19          20
           21          22          23          24          25          26          27          28          29          30
           31          32          33          34          35          36          37          38          39          40
           41          42          43          44          45          46          47          48          49          50
           51          52          53          54          55          56          57          58          59          60
           61          62          63          64          65          66          67          68          69          70
           71          72          73          74          75          76          77          78          79          80
           81          82          83          84          85          86          87          88          89          90
           91          92          93          94          95          96          97          98          99         100
          101         102         103         104         105         106         107         108         109         110
          111         112         113         114         115         116         117         118         119         120
          121         122         123         124         125         126         127         128         129         130
          131         132         133         134         135         136         137         138         139         140
          141         142         143         144         145         146         147         148         149         150
          151         152         153         154         155         156         157         158         159         160
          161         162         163         164         165         166         167         168         169         170
          171         172         173         174         175         176         177         178         179         180
          181         182         183         184         185         186
 ........................................................................................................................
   1    3478.       3484.       3487.       3485.       3485.       3480.       3484.       3483.       3483.       3483.    
        3479.       3477.       3479.       3485.       3492.       3492.       3496.       3496.       3496.       3501.    
        3501.       3501.       3501.       3502.       3502.       3502.       3513.       3513.       3513.       3521.    
        3521.       3521.       3531.       3531.       3531.       3528.       3528.       3528.       3529.       3529.    
        3529.       3531.       3531.       3531.       3530.       3530.       3530.       3530.       3530.       3530.    
        3529.       3529.       3529.       3530.       3530.       3530.       3531.       3531.       3531.       3532.    
        3532.       3532.       3532.       3532.       3532.       3534.       3534.       3534.       3535.       3535.    
        3535.       3535.       3535.       3535.       3535.       3535.       3535.       3535.       3538.       3538.    
        3538.       3538.       3538.       3538.       3540.       3540.       3540.       3539.       3539.       3539.    
        3538.       3538.       3538.       3541.       3541.       3541.       3545.       3545.       3545.       3552.    
        3552.       3552.       3556.       3556.       3556.       3562.       3562.       3562.       3569.       3569.    
        3569.       3575.       3575.       3575.       3583.       3583.       3583.       3589.       3589.       3589.    
        3591.       3591.       3591.       3592.       3592.       3592.       3592.       3592.       3592.       3592.    
        3592.       3592.       3592.       3590.       3590.       3590.       3591.       3591.       3591.       3595.    
        3595.       3595.       3595.       3595.       3595.       3597.       3597.       3597.       3598.       3598.    
        3598.       3598.       3598.       3598.       3600.       3600.       3600.       3597.       3597.       3597.    
        3595.       3595.       3595.       3595.       3595.       3596.       3596.       3596.       3597.       3598.    
        3598.       3598.       3600.       3603.       3605.       3607.       3607.       3608.       3609.       3611.    
        3612.       3610.       3610.       3609.       3613.       3615.    
   2    3480.       3480.       3486.       3489.       3489.       3483.       3481.       3480.       3481.       3481.    
        3478.       3478.       3482.       3489.       3496.       3496.       3496.       3496.       3496.       3499.    
        3499.       3499.       3499.       3502.       3502.       3502.       3509.       3509.       3509.       3517.    
        3517.       3517.       3525.       3525.       3525.       3528.       3528.       3528.       3530.       3530.    
        3530.       3530.       3530.       3530.       3529.       3529.       3529.       3529.       3529.       3529.    
        3528.       3528.       3528.       3530.       3530.       3530.       3530.       3530.       3530.       3531.    
        3531.       3531.       3531.       3531.       3531.       3533.       3533.       3533.       3533.       3533.    
        3533.       3534.       3534.       3534.       3534.       3536.       3536.       3536.       3537.       3537.    
        3537.       3538.       3538.       3538.       3538.       3538.       3538.       3538.       3538.       3538.    
        3537.       3537.       3537.       3540.       3540.       3540.       3544.       3544.       3544.       3545.    
        3545.       3545.       3548.       3548.       3548.       3554.       3554.       3554.       3563.       3563.    
        3563.       3575.       3575.       3575.       3585.       3585.       3585.       3589.       3589.       3589.    
        3590.       3590.       3590.       3588.       3588.       3588.       3588.       3588.       3588.       3591.    
        3591.       3591.       3591.       3591.       3591.       3591.       3594.       3594.       3594.       3596.    
        3596.       3596.       3597.       3597.       3597.       3597.       3597.       3597.       3597.       3597.    
        3597.       3597.       3597.       3597.       3598.       3598.       3598.       3596.       3596.       3596.    
        3595.       3595.       3595.       3595.       3595.       3598.       3598.       3599.       3598.       3599.    
        3599.       3599.       3601.       3602.       3603.       3603.       3603.       3605.       3605.       3605.    
        3608.       3612.       3612.       3611.       3615.       3617.    
   3    3480.       3477.       3485.       3484.       3484.       3480.       3480.       3480.       3478.       3478.    
        3478.       3481.       3485.       3492.       3497.       3497.       3497.       3497.       3497.       3497.    
        3497.       3497.       3497.       3500.       3500.       3500.       3505.       3505.       3505.       3510.    
        3510.       3510.       3517.       3517.       3517.       3524.       3524.       3524.       3528.       3528.    
        3528.       3529.       3529.       3529.       3531.       3531.       3531.       3531.       3531.       3531.    
        3528.       3528.       3528.       3528.       3528.       3528.       3528.       3528.       3528.       3529.    
        3529.       3529.       3531.       3531.       3531.       3533.       3533.       3533.       3533.       3533.    
        3533.       3534.       3534.       3534.       3534.       3535.       3535.       3535.       3535.       3535.    
        3535.       3537.       3537.       3537.       3538.       3538.       3538.       3535.       3535.       3535.    
        3534.       3534.       3534.       3538.       3538.       3538.       3542.       3542.       3542.       3541.    
        3541.       3541.       3541.       3541.       3541.       3545.       3545.       3545.       3553.       3553.    
        3553.       3565.       3565.       3565.       3578.       3578.       3578.       3586.       3586.       3586.    
        3587.       3587.       3587.       3585.       3585.       3585.       3585.       3585.       3585.       3588.    
        3588.       3588.       3588.       3590.       3590.       3590.       3591.       3591.       3591.       3592.    
        3592.       3592.       3593.       3593.       3593.       3594.       3594.       3594.       3595.       3595.    
        3595.       3597.       3597.       3597.       3596.       3596.       3596.       3595.       3595.       3595.    
        3596.       3596.       3596.       3596.       3596.       3597.       3597.       3597.       3596.       3596.    
        3597.       3597.       3597.       3598.       3600.       3603.       3603.       3606.       3607.       3608.    
        3612.       3614.       3614.       3613.       3617.       3617.    
   4    3480.       3477.       3483.       3482.       3482.       3480.       3480.       3480.       3480.       3480.    
        3480.       3482.       3484.       3488.       3495.       3495.       3496.       3496.       3496.       3497.    
        3497.       3497.       3497.       3501.       3501.       3501.       3506.       3506.       3506.       3507.    
        3507.       3507.       3509.       3509.       3509.       3517.       3517.       3517.       3524.       3524.    
        3524.       3530.       3530.       3530.       3531.       3531.       3531.       3531.       3531.       3531.    
        3531.       3531.       3531.       3531.       3531.       3531.       3531.       3531.       3531.       3531.    
        3531.       3531.       3532.       3532.       3532.       3533.       3533.       3533.       3535.       3535.    
        3535.       3535.       3535.       3535.       3535.       3534.       3534.       3534.       3535.       3535.    
        3535.       3537.       3537.       3537.       3536.       3536.       3536.       3535.       3535.       3535.    
        3534.       3534.       3534.       3538.       3538.       3538.       3543.       3543.       3543.       3543.    
        3543.       3543.       3541.       3541.       3541.       3542.       3542.       3542.       3546.       3546.    
        3546.       3551.       3551.       3551.       3557.       3557.       3557.       3567.       3567.       3567.    
        3576.       3576.       3576.       3582.       3582.       3582.       3585.       3585.       3585.       3587.    
        3587.       3587.       3587.       3587.       3587.       3587.       3587.       3587.       3587.       3589.    
        3589.       3589.       3591.       3591.       3591.       3592.       3592.       3592.       3595.       3595.    
        3595.       3599.       3599.       3599.       3598.       3598.       3598.       3596.       3596.       3596.    
        3597.       3597.       3597.       3598.       3598.       3598.       3598.       3596.       3595.       3596.    
        3596.       3596.       3598.       3598.       3599.       3600.       3600.       3601.       3602.       3604.    
        3607.       3609.       3609.       3611.       3613.       3614.    
   5    3480.       3477.       3483.       3482.       3482.       3480.       3480.       3480.       3480.       3480.    
        3480.       3482.       3484.       3488.       3495.       3495.       3496.       3496.       3496.       3497.    
        3497.       3497.       3497.       3501.       3501.       3501.       3506.       3506.       3506.       3507.    
        3507.       3507.       3509.       3509.       3509.       3517.       3517.       3517.       3524.       3524.    
        3524.       3530.       3530.       3530.       3531.       3531.       3531.       3531.       3531.       3531.    
        3531.       3531.       3531.       3531.       3531.       3531.       3531.       3531.       3531.       3531.    
        3531.       3531.       3532.       3532.       3532.       3533.       3533.       3533.       3535.       3535.    
        3535.       3535.       3535.       3535.       3535.       3534.       3534.       3534.       3535.       3535.    
        3535.       3537.       3537.       3537.       3536.       3536.       3536.       3535.       3535.       3535.    
        3534.       3534.       3534.       3538.       3538.       3538.       3543.       3543.       3543.       3543.    
        3543.       3543.       3541.       3541.       3541.       3542.       3542.       3542.       3546.       3546.    
        3546.       3551.       3551.       3551.       3557.       3557.       3557.       3567.       3567.       3567.    
        3576.       3576.       3576.       3582.       3582.       3582.       3585.       3585.       3585.       3587.    
        3587.       3587.       3587.       3587.       3587.       3587.       3587.       3587.       3587.       3589.    
        3589.       3589.       3591.       3591.       3591.       3592.       3592.       3592.       3595.       3595.    
        3595.       3599.       3599.       3599.       3598.       3598.       3598.       3596.       3596.       3596.    
        3597.       3597.       3597.       3598.       3598.       3598.       3598.       3596.       3595.       3596.    
        3596.       3596.       3598.       3598.       3599.       3600.       3600.       3601.       3602.       3604.    
        3607.       3609.       3609.       3611.       3613.       3614.    
   6    3483.       3481.       3482.       3483.       3483.       3481.       3481.       3484.       3475.       3475.    
        3479.       3483.       3486.       3489.       3493.       3493.       3497.       3497.       3497.       3498.    
        3498.       3498.       3498.       3503.       3503.       3503.       3507.       3507.       3507.       3506.    
        3506.       3506.       3505.       3505.       3505.       3509.       3509.       3509.       3517.       3517.    
        3517.       3526.       3526.       3526.       3530.       3530.       3530.       3531.       3531.       3531.    
        3530.       3530.       3530.       3530.       3530.       3530.       3532.       3532.       3532.       3532.    
        3532.       3532.       3531.       3531.       3531.       3534.       3534.       3534.       3535.       3535.    
        3535.       3534.       3534.       3534.       3534.       3534.       3534.       3534.       3536.       3536.    
        3536.       3537.       3537.       3537.       3533.       3533.       3533.       3532.       3532.       3532.    
        3534.       3534.       3534.       3539.       3539.       3539.       3543.       3543.       3543.       3545.    
        3545.       3545.       3545.       3545.       3545.       3543.       3543.       3543.       3545.       3545.    
        3545.       3548.       3548.       3548.       3548.       3548.       3548.       3551.       3551.       3551.    
        3556.       3556.       3556.       3561.       3561.       3561.       3568.       3568.       3568.       3575.    
        3575.       3575.       3575.       3580.       3580.       3580.       3584.       3584.       3584.       3589.    
        3589.       3589.       3592.       3592.       3592.       3592.       3592.       3592.       3594.       3594.    
        3594.       3601.       3601.       3601.       3599.       3599.       3599.       3598.       3598.       3598.    
        3596.       3596.       3596.       3597.       3597.       3597.       3597.       3596.       3591.       3589.    
        3589.       3589.       3589.       3590.       3593.       3594.       3594.       3593.       3590.       3589.    
        3591.       3592.       3592.       3594.       3600.       3604.    
   7    3481.       3480.       3478.       3483.       3483.       3481.       3483.       3482.       3483.       3483.    
        3482.       3485.       3485.       3490.       3496.       3496.       3498.       3498.       3498.       3499.    
        3499.       3499.       3499.       3502.       3502.       3502.       3507.       3507.       3507.       3505.    
        3505.       3505.       3503.       3503.       3503.       3505.       3505.       3505.       3510.       3510.    
        3510.       3517.       3517.       3517.       3524.       3524.       3524.       3529.       3529.       3529.    
        3531.       3531.       3531.       3533.       3533.       3533.       3535.       3535.       3535.       3534.    
        3534.       3534.       3533.       3533.       3533.       3532.       3532.       3532.       3534.       3534.    
        3534.       3534.       3534.       3534.       3534.       3535.       3535.       3535.       3535.       3535.    
        3535.       3535.       3535.       3535.       3532.       3532.       3532.       3532.       3532.       3532.    
        3536.       3536.       3536.       3539.       3539.       3539.       3541.       3541.       3541.       3543.    
        3543.       3543.       3547.       3547.       3547.       3545.       3545.       3545.       3544.       3544.    
        3544.       3547.       3547.       3547.       3549.       3549.       3549.       3551.       3551.       3551.    
        3553.       3553.       3553.       3554.       3554.       3554.       3557.       3557.       3557.       3560.    
        3560.       3560.       3560.       3563.       3563.       3563.       3568.       3568.       3568.       3573.    
        3573.       3573.       3581.       3581.       3581.       3587.       3587.       3587.       3592.       3592.    
        3592.       3595.       3595.       3595.       3592.       3592.       3592.       3585.       3585.       3585.    
        3580.       3580.       3580.       3575.       3575.       3571.       3571.       3569.       3564.       3563.    
        3560.       3560.       3560.       3559.       3561.       3564.       3564.       3566.       3567.       3572.    
        3577.       3578.       3578.       3579.       3581.       3583.    
   8    3483.       3481.       3485.       3485.       3485.       3478.       3478.       3483.       3484.       3484.    
        3484.       3488.       3489.       3494.       3498.       3498.       3501.       3501.       3501.       3501.    
        3501.       3501.       3501.       3501.       3501.       3501.       3502.       3502.       3502.       3506.    
        3506.       3506.       3503.       3503.       3503.       3502.       3502.       3502.       3504.       3504.    
        3504.       3510.       3510.       3510.       3515.       3515.       3515.       3523.       3523.       3523.    
        3529.       3529.       3529.       3536.       3536.       3536.       3539.       3539.       3539.       3537.    
        3537.       3537.       3535.       3535.       3535.       3534.       3534.       3534.       3534.       3534.    
        3534.       3535.       3535.       3535.       3535.       3538.       3538.       3538.       3537.       3537.    
        3537.       3534.       3534.       3534.       3533.       3533.       3533.       3533.       3533.       3533.    
        3536.       3536.       3536.       3539.       3539.       3539.       3537.       3537.       3537.       3539.    
        3539.       3539.       3543.       3543.       3543.       3546.       3546.       3546.       3545.       3545.    
        3545.       3543.       3543.       3543.       3542.       3542.       3542.       3545.       3545.       3545.    
        3548.       3548.       3548.       3552.       3552.       3552.       3555.       3555.       3555.       3557.    
        3557.       3557.       3557.       3558.       3558.       3558.       3558.       3558.       3558.       3559.    
        3559.       3559.       3563.       3563.       3563.       3570.       3570.       3570.       3575.       3575.    
        3575.       3575.       3575.       3575.       3566.       3566.       3566.       3560.       3560.       3560.    
        3555.       3555.       3555.       3550.       3550.       3549.       3549.       3549.       3550.       3551.    
        3549.       3549.       3547.       3548.       3551.       3553.       3553.       3553.       3554.       3555.    
        3558.       3563.       3563.       3566.       3567.       3567.    
   9    3483.       3484.       3487.       3484.       3484.       3485.       3478.       3482.       3482.       3482.    
        3483.       3488.       3488.       3492.       3495.       3495.       3498.       3498.       3498.       3500.    
        3500.       3500.       3500.       3500.       3500.       3500.       3500.       3500.       3500.       3502.    
        3502.       3502.       3503.       3503.       3503.       3502.       3502.       3502.       3501.       3501.    
        3501.       3504.       3504.       3504.       3507.       3507.       3507.       3512.       3512.       3512.    
        3522.       3522.       3522.       3531.       3531.       3531.       3536.       3536.       3536.       3538.    
        3538.       3538.       3539.       3539.       3539.       3540.       3540.       3540.       3540.       3540.    
        3540.       3539.       3539.       3539.       3539.       3540.       3540.       3540.       3540.       3540.    
        3540.       3539.       3539.       3539.       3537.       3537.       3537.       3537.       3537.       3537.    
        3537.       3537.       3537.       3537.       3537.       3537.       3537.       3537.       3537.       3540.    
        3540.       3540.       3544.       3544.       3544.       3549.       3549.       3549.       3549.       3549.    
        3549.       3547.       3547.       3547.       3544.       3544.       3544.       3542.       3542.       3542.    
        3541.       3541.       3541.       3544.       3544.       3544.       3548.       3548.       3548.       3551.    
        3551.       3551.       3551.       3554.       3554.       3554.       3556.       3556.       3556.       3557.    
        3557.       3557.       3560.       3560.       3560.       3561.       3561.       3561.       3556.       3556.    
        3556.       3551.       3551.       3551.       3551.       3551.       3551.       3552.       3552.       3552.    
        3548.       3548.       3548.       3545.       3545.       3546.       3546.       3547.       3547.       3546.    
        3541.       3541.       3539.       3542.       3547.       3548.       3548.       3547.       3546.       3544.    
        3546.       3551.       3551.       3553.       3551.       3550.    
  10    3487.       3487.       3487.       3489.       3489.       3487.       3481.       3478.       3482.       3482.    
        3484.       3486.       3487.       3488.       3492.       3492.       3496.       3496.       3496.       3501.    
        3501.       3501.       3501.       3501.       3501.       3501.       3503.       3503.       3503.       3505.    
        3505.       3505.       3505.       3505.       3505.       3506.       3506.       3506.       3505.       3505.    
        3505.       3504.       3504.       3504.       3504.       3504.       3504.       3507.       3507.       3507.    
        3512.       3512.       3512.       3520.       3520.       3520.       3530.       3530.       3530.       3534.    
        3534.       3534.       3535.       3535.       3535.       3536.       3536.       3536.       3538.       3538.    
        3538.       3541.       3541.       3541.       3541.       3542.       3542.       3542.       3540.       3540.    
        3540.       3541.       3541.       3541.       3541.       3541.       3541.       3541.       3541.       3541.    
        3542.       3542.       3542.       3542.       3542.       3542.       3540.       3540.       3540.       3540.    
        3540.       3540.       3546.       3546.       3546.       3548.       3548.       3548.       3549.       3549.    
        3549.       3550.       3550.       3550.       3549.       3549.       3549.       3548.       3548.       3548.    
        3546.       3546.       3546.       3544.       3544.       3544.       3542.       3542.       3542.       3543.    
        3543.       3543.       3543.       3546.       3546.       3546.       3549.       3549.       3549.       3551.    
        3551.       3551.       3551.       3551.       3551.       3544.       3544.       3544.       3535.       3535.    
        3535.       3533.       3533.       3533.       3537.       3537.       3537.       3541.       3541.       3541.    
        3540.       3540.       3540.       3538.       3538.       3538.       3538.       3539.       3539.       3539.    
        3536.       3536.       3536.       3537.       3540.       3543.       3543.       3544.       3543.       3541.    
        3542.       3543.       3543.       3544.       3545.       3545.    
  11    3487.       3487.       3487.       3489.       3489.       3487.       3481.       3478.       3482.       3482.    
        3484.       3486.       3487.       3488.       3492.       3492.       3496.       3496.       3496.       3501.    
        3501.       3501.       3501.       3501.       3501.       3501.       3503.       3503.       3503.       3505.    
        3505.       3505.       3505.       3505.       3505.       3506.       3506.       3506.       3505.       3505.    
        3505.       3504.       3504.       3504.       3504.       3504.       3504.       3507.       3507.       3507.    
        3512.       3512.       3512.       3520.       3520.       3520.       3530.       3530.       3530.       3534.    
        3534.       3534.       3535.       3535.       3535.       3536.       3536.       3536.       3538.       3538.    
        3538.       3541.       3541.       3541.       3541.       3542.       3542.       3542.       3540.       3540.    
        3540.       3541.       3541.       3541.       3541.       3541.       3541.       3541.       3541.       3541.    
        3542.       3542.       3542.       3542.       3542.       3542.       3540.       3540.       3540.       3540.    
        3540.       3540.       3546.       3546.       3546.       3548.       3548.       3548.       3549.       3549.    
        3549.       3550.       3550.       3550.       3549.       3549.       3549.       3548.       3548.       3548.    
        3546.       3546.       3546.       3544.       3544.       3544.       3542.       3542.       3542.       3543.    
        3543.       3543.       3543.       3546.       3546.       3546.       3549.       3549.       3549.       3551.    
        3551.       3551.       3551.       3551.       3551.       3544.       3544.       3544.       3535.       3535.    
        3535.       3533.       3533.       3533.       3537.       3537.       3537.       3541.       3541.       3541.    
        3540.       3540.       3540.       3538.       3538.       3538.       3538.       3539.       3539.       3539.    
        3536.       3536.       3536.       3537.       3540.       3543.       3543.       3544.       3543.       3541.    
        3542.       3543.       3543.       3544.       3545.       3545.    
  12    3488.       3488.       3488.       3491.       3491.       3485.       3481.       3480.       3483.       3483.    
        3482.       3483.       3483.       3485.       3489.       3489.       3493.       3493.       3493.       3499.    
        3499.       3499.       3499.       3504.       3504.       3504.       3504.       3504.       3504.       3507.    
        3507.       3507.       3507.       3507.       3507.       3505.       3505.       3505.       3507.       3507.    
        3507.       3507.       3507.       3507.       3505.       3505.       3505.       3506.       3506.       3506.    
        3508.       3508.       3508.       3512.       3512.       3512.       3517.       3517.       3517.       3524.    
        3524.       3524.       3530.       3530.       3530.       3533.       3533.       3533.       3535.       3535.    
        3535.       3537.       3537.       3537.       3537.       3538.       3538.       3538.       3539.       3539.    
        3539.       3538.       3538.       3538.       3540.       3540.       3540.       3539.       3539.       3539.    
        3540.       3540.       3540.       3541.       3541.       3541.       3542.       3542.       3542.       3542.    
        3542.       3542.       3546.       3546.       3546.       3543.       3543.       3543.       3545.       3545.    
        3545.       3546.       3546.       3546.       3546.       3546.       3546.       3545.       3545.       3545.    
        3544.       3544.       3544.       3543.       3543.       3543.       3542.       3542.       3542.       3544.    
        3544.       3544.       3544.       3540.       3540.       3540.       3538.       3538.       3538.       3535.    
        3535.       3535.       3532.       3532.       3532.       3527.       3527.       3527.       3524.       3524.    
        3524.       3525.       3525.       3525.       3524.       3524.       3524.       3525.       3525.       3525.    
        3527.       3527.       3527.       3530.       3530.       3533.       3533.       3534.       3534.       3533.    
        3531.       3531.       3531.       3531.       3533.       3537.       3537.       3537.       3538.       3539.    
        3540.       3540.       3540.       3542.       3544.       3546.    
  13    3487.       3484.       3481.       3483.       3483.       3484.       3482.       3482.       3482.       3482.    
        3479.       3478.       3479.       3482.       3486.       3486.       3490.       3490.       3490.       3495.    
        3495.       3495.       3495.       3500.       3500.       3500.       3503.       3503.       3503.       3506.    
        3506.       3506.       3506.       3506.       3506.       3503.       3503.       3503.       3502.       3502.    
        3502.       3503.       3503.       3503.       3502.       3502.       3502.       3503.       3503.       3503.    
        3504.       3504.       3504.       3506.       3506.       3506.       3507.       3507.       3507.       3510.    
        3510.       3510.       3515.       3515.       3515.       3521.       3521.       3521.       3526.       3526.    
        3526.       3529.       3529.       3529.       3529.       3531.       3531.       3531.       3532.       3532.    
        3532.       3533.       3533.       3533.       3534.       3534.       3534.       3536.       3536.       3536.    
        3537.       3537.       3537.       3537.       3537.       3537.       3537.       3537.       3537.       3538.    
        3538.       3538.       3540.       3540.       3540.       3543.       3543.       3543.       3537.       3537.    
        3537.       3537.       3537.       3537.       3538.       3538.       3538.       3539.       3539.       3539.    
        3541.       3541.       3541.       3541.       3541.       3541.       3540.       3540.       3540.       3540.    
        3540.       3540.       3540.       3534.       3534.       3534.       3528.       3528.       3528.       3525.    
        3525.       3525.       3523.       3523.       3523.       3522.       3522.       3522.       3520.       3520.    
        3520.       3520.       3520.       3520.       3519.       3519.       3519.       3518.       3518.       3518.    
        3519.       3519.       3519.       3522.       3522.       3524.       3524.       3526.       3528.       3527.    
        3529.       3529.       3530.       3533.       3534.       3537.       3537.       3538.       3537.       3538.    
        3541.       3542.       3542.       3542.       3544.       3547.    
  14    3491.       3487.       3483.       3482.       3482.       3482.       3486.       3484.       3481.       3481.    
        3479.       3482.       3483.       3483.       3482.       3482.       3486.       3486.       3486.       3493.    
        3493.       3493.       3493.       3499.       3499.       3499.       3503.       3503.       3503.       3502.    
        3502.       3502.       3503.       3503.       3503.       3500.       3500.       3500.       3499.       3499.    
        3499.       3499.       3499.       3499.       3500.       3500.       3500.       3501.       3501.       3501.    
        3503.       3503.       3503.       3502.       3502.       3502.       3500.       3500.       3500.       3502.    
        3502.       3502.       3506.       3506.       3506.       3511.       3511.       3511.       3515.       3515.    
        3515.       3517.       3517.       3517.       3517.       3519.       3519.       3519.       3521.       3521.    
        3521.       3523.       3523.       3523.       3527.       3527.       3527.       3529.       3529.       3529.    
        3530.       3530.       3530.       3530.       3530.       3530.       3530.       3530.       3530.       3531.    
        3531.       3531.       3532.       3532.       3532.       3534.       3534.       3534.       3537.       3537.    
        3537.       3529.       3529.       3529.       3528.       3528.       3528.       3528.       3528.       3528.    
        3527.       3527.       3527.       3527.       3527.       3527.       3527.       3527.       3527.       3526.    
        3526.       3526.       3526.       3525.       3525.       3525.       3522.       3522.       3522.       3519.    
        3519.       3519.       3519.       3519.       3519.       3519.       3519.       3519.       3521.       3521.    
        3521.       3523.       3523.       3523.       3524.       3524.       3524.       3523.       3523.       3523.    
        3524.       3524.       3524.       3525.       3525.       3527.       3527.       3529.       3528.       3527.    
        3531.       3531.       3535.       3536.       3538.       3540.       3540.       3540.       3539.       3539.    
        3540.       3540.       3540.       3540.       3543.       3546.    
  15    3495.       3490.       3485.       3483.       3483.       3483.       3488.       3488.       3484.       3484.    
        3481.       3483.       3485.       3487.       3485.       3485.       3485.       3485.       3485.       3488.    
        3488.       3488.       3488.       3494.       3494.       3494.       3499.       3499.       3499.       3503.    
        3503.       3503.       3505.       3505.       3505.       3504.       3504.       3504.       3506.       3506.    
        3506.       3507.       3507.       3507.       3507.       3507.       3507.       3509.       3509.       3509.    
        3508.       3508.       3508.       3509.       3509.       3509.       3507.       3507.       3507.       3506.    
        3506.       3506.       3505.       3505.       3505.       3505.       3505.       3505.       3506.       3506.    
        3506.       3508.       3508.       3508.       3508.       3510.       3510.       3510.       3513.       3513.    
        3513.       3515.       3515.       3515.       3516.       3516.       3516.       3518.       3518.       3518.    
        3520.       3520.       3520.       3521.       3521.       3521.       3522.       3522.       3522.       3522.    
        3522.       3522.       3523.       3523.       3523.       3526.       3526.       3526.       3528.       3528.    
        3528.       3521.       3521.       3521.       3523.       3523.       3523.       3526.       3526.       3526.    
        3526.       3526.       3526.       3525.       3525.       3525.       3522.       3522.       3522.       3516.    
        3516.       3516.       3516.       3516.       3516.       3516.       3518.       3518.       3518.       3519.    
        3519.       3519.       3519.       3519.       3519.       3519.       3519.       3519.       3522.       3522.    
        3522.       3525.       3525.       3525.       3526.       3526.       3526.       3527.       3527.       3527.    
        3530.       3530.       3530.       3534.       3534.       3535.       3535.       3533.       3530.       3530.    
        3533.       3533.       3537.       3538.       3539.       3540.       3540.       3542.       3542.       3542.    
        3542.       3541.       3541.       3543.       3545.       3547.    
  16    3499.       3495.       3491.       3485.       3485.       3478.       3480.       3486.       3488.       3488.    
        3482.       3481.       3483.       3486.       3488.       3488.       3488.       3488.       3488.       3488.    
        3488.       3488.       3488.       3489.       3489.       3489.       3489.       3489.       3489.       3493.    
        3493.       3493.       3496.       3496.       3496.       3500.       3500.       3500.       3502.       3502.    
        3502.       3501.       3501.       3501.       3506.       3506.       3506.       3508.       3508.       3508.    
        3508.       3508.       3508.       3508.       3508.       3508.       3509.       3509.       3509.       3512.    
        3512.       3512.       3512.       3512.       3512.       3513.       3513.       3513.       3512.       3512.    
        3512.       3509.       3509.       3509.       3509.       3509.       3509.       3509.       3511.       3511.    
        3511.       3512.       3512.       3512.       3512.       3512.       3512.       3511.       3511.       3511.    
        3513.       3513.       3513.       3514.       3514.       3514.       3516.       3516.       3516.       3517.    
        3517.       3517.       3519.       3519.       3519.       3520.       3520.       3520.       3521.       3521.    
        3521.       3521.       3521.       3521.       3516.       3516.       3516.       3518.       3518.       3518.    
        3520.       3520.       3520.       3519.       3519.       3519.       3517.       3517.       3517.       3514.    
        3514.       3514.       3514.       3514.       3514.       3514.       3515.       3515.       3515.       3517.    
        3517.       3517.       3519.       3519.       3519.       3519.       3519.       3519.       3522.       3522.    
        3522.       3524.       3524.       3524.       3526.       3526.       3526.       3527.       3527.       3527.    
        3529.       3529.       3529.       3531.       3531.       3532.       3532.       3531.       3531.       3532.    
        3534.       3534.       3536.       3536.       3537.       3541.       3541.       3543.       3544.       3543.    
        3540.       3540.       3540.       3542.       3546.       3547.    
  17    3499.       3495.       3491.       3485.       3485.       3478.       3480.       3486.       3488.       3488.    
        3482.       3481.       3483.       3486.       3488.       3488.       3488.       3488.       3488.       3488.    
        3488.       3488.       3488.       3489.       3489.       3489.       3489.       3489.       3489.       3493.    
        3493.       3493.       3496.       3496.       3496.       3500.       3500.       3500.       3502.       3502.    
        3502.       3501.       3501.       3501.       3506.       3506.       3506.       3508.       3508.       3508.    
        3508.       3508.       3508.       3508.       3508.       3508.       3509.       3509.       3509.       3512.    
        3512.       3512.       3512.       3512.       3512.       3513.       3513.       3513.       3512.       3512.    
        3512.       3509.       3509.       3509.       3509.       3509.       3509.       3509.       3511.       3511.    
        3511.       3512.       3512.       3512.       3512.       3512.       3512.       3511.       3511.       3511.    
        3513.       3513.       3513.       3514.       3514.       3514.       3516.       3516.       3516.       3517.    
        3517.       3517.       3519.       3519.       3519.       3520.       3520.       3520.       3521.       3521.    
        3521.       3521.       3521.       3521.       3516.       3516.       3516.       3518.       3518.       3518.    
        3520.       3520.       3520.       3519.       3519.       3519.       3517.       3517.       3517.       3514.    
        3514.       3514.       3514.       3514.       3514.       3514.       3515.       3515.       3515.       3517.    
        3517.       3517.       3519.       3519.       3519.       3519.       3519.       3519.       3522.       3522.    
        3522.       3524.       3524.       3524.       3526.       3526.       3526.       3527.       3527.       3527.    
        3529.       3529.       3529.       3531.       3531.       3532.       3532.       3531.       3531.       3532.    
        3534.       3534.       3536.       3536.       3537.       3541.       3541.       3543.       3544.       3543.    
        3540.       3540.       3540.       3542.       3546.       3547.    
  18    3499.       3496.       3497.       3486.       3486.       3487.       3485.       3486.       3488.       3488.    
        3483.       3483.       3486.       3490.       3492.       3492.       3493.       3493.       3493.       3493.    
        3493.       3493.       3493.       3491.       3491.       3491.       3489.       3489.       3489.       3487.    
        3487.       3487.       3489.       3489.       3489.       3493.       3493.       3493.       3496.       3496.    
        3496.       3497.       3497.       3497.       3498.       3498.       3498.       3498.       3498.       3498.    
        3502.       3502.       3502.       3506.       3506.       3506.       3511.       3511.       3511.       3509.    
        3509.       3509.       3509.       3509.       3509.       3511.       3511.       3511.       3512.       3512.    
        3512.       3511.       3511.       3511.       3511.       3510.       3510.       3510.       3514.       3514.    
        3514.       3515.       3515.       3515.       3514.       3514.       3514.       3511.       3511.       3511.    
        3510.       3510.       3510.       3512.       3512.       3512.       3513.       3513.       3513.       3513.    
        3513.       3513.       3514.       3514.       3514.       3517.       3517.       3517.       3518.       3518.    
        3518.       3518.       3518.       3518.       3516.       3516.       3516.       3508.       3508.       3508.    
        3510.       3510.       3510.       3514.       3514.       3514.       3515.       3515.       3515.       3515.    
        3515.       3515.       3515.       3516.       3516.       3516.       3518.       3518.       3518.       3523.    
        3523.       3523.       3526.       3526.       3526.       3526.       3526.       3526.       3525.       3525.    
        3525.       3526.       3526.       3526.       3528.       3528.       3528.       3530.       3530.       3530.    
        3533.       3533.       3533.       3536.       3536.       3538.       3538.       3536.       3535.       3534.    
        3535.       3535.       3537.       3536.       3535.       3537.       3537.       3541.       3543.       3542.    
        3540.       3539.       3539.       3540.       3544.       3547.    
  19    3503.       3501.       3499.       3490.       3490.       3493.       3497.       3491.       3491.       3491.    
        3484.       3485.       3487.       3490.       3493.       3493.       3495.       3495.       3495.       3496.    
        3496.       3496.       3496.       3495.       3495.       3495.       3494.       3494.       3494.       3491.    
        3491.       3491.       3490.       3490.       3490.       3492.       3492.       3492.       3494.       3494.    
        3494.       3495.       3495.       3495.       3493.       3493.       3493.       3492.       3492.       3492.    
        3494.       3494.       3494.       3500.       3500.       3500.       3504.       3504.       3504.       3504.    
        3504.       3504.       3505.       3505.       3505.       3507.       3507.       3507.       3509.       3509.    
        3509.       3508.       3508.       3508.       3508.       3508.       3508.       3508.       3509.       3509.    
        3509.       3513.       3513.       3513.       3511.       3511.       3511.       3510.       3510.       3510.    
        3510.       3510.       3510.       3511.       3511.       3511.       3512.       3512.       3512.       3513.    
        3513.       3513.       3515.       3515.       3515.       3516.       3516.       3516.       3518.       3518.    
        3518.       3515.       3515.       3515.       3510.       3510.       3510.       3508.       3508.       3508.    
        3505.       3505.       3505.       3511.       3511.       3511.       3514.       3514.       3514.       3516.    
        3516.       3516.       3516.       3519.       3519.       3519.       3520.       3520.       3520.       3521.    
        3521.       3521.       3525.       3525.       3525.       3527.       3527.       3527.       3528.       3528.    
        3528.       3528.       3528.       3528.       3529.       3529.       3529.       3530.       3530.       3530.    
        3533.       3533.       3533.       3537.       3537.       3540.       3540.       3540.       3538.       3536.    
        3535.       3535.       3535.       3535.       3535.       3537.       3537.       3538.       3541.       3543.    
        3541.       3542.       3542.       3547.       3550.       3552.    
  20    3504.       3502.       3497.       3491.       3491.       3495.       3498.       3493.       3493.       3493.    
        3489.       3486.       3484.       3486.       3490.       3490.       3493.       3493.       3493.       3491.    
        3491.       3491.       3491.       3491.       3491.       3491.       3493.       3493.       3493.       3493.    
        3493.       3493.       3492.       3492.       3492.       3493.       3493.       3493.       3493.       3493.    
        3493.       3493.       3493.       3493.       3494.       3494.       3494.       3493.       3493.       3493.    
        3492.       3492.       3492.       3495.       3495.       3495.       3497.       3497.       3497.       3497.    
        3497.       3497.       3498.       3498.       3498.       3500.       3500.       3500.       3503.       3503.    
        3503.       3503.       3503.       3503.       3503.       3504.       3504.       3504.       3506.       3506.    
        3506.       3510.       3510.       3510.       3510.       3510.       3510.       3508.       3508.       3508.    
        3509.       3509.       3509.       3510.       3510.       3510.       3510.       3510.       3510.       3511.    
        3511.       3511.       3515.       3515.       3515.       3517.       3517.       3517.       3519.       3519.    
        3519.       3514.       3514.       3514.       3508.       3508.       3508.       3504.       3504.       3504.    
        3505.       3505.       3505.       3514.       3514.       3514.       3516.       3516.       3516.       3518.    
        3518.       3518.       3518.       3521.       3521.       3521.       3521.       3521.       3521.       3521.    
        3521.       3521.       3524.       3524.       3524.       3527.       3527.       3527.       3530.       3530.    
        3530.       3530.       3530.       3530.       3529.       3529.       3529.       3531.       3531.       3531.    
        3533.       3533.       3533.       3537.       3537.       3540.       3540.       3541.       3537.       3536.    
        3535.       3535.       3536.       3534.       3536.       3538.       3538.       3541.       3545.       3545.    
        3546.       3549.       3549.       3552.       3551.       3552.    
  21    3505.       3505.       3500.       3491.       3491.       3494.       3493.       3492.       3492.       3492.    
        3491.       3486.       3482.       3484.       3485.       3485.       3487.       3487.       3487.       3488.    
        3488.       3488.       3488.       3488.       3488.       3488.       3490.       3490.       3490.       3493.    
        3493.       3493.       3493.       3493.       3493.       3491.       3491.       3491.       3491.       3491.    
        3491.       3492.       3492.       3492.       3494.       3494.       3494.       3497.       3497.       3497.    
        3495.       3495.       3495.       3495.       3495.       3495.       3495.       3495.       3495.       3495.    
        3495.       3495.       3494.       3494.       3494.       3495.       3495.       3495.       3496.       3496.    
        3496.       3497.       3497.       3497.       3497.       3499.       3499.       3499.       3502.       3502.    
        3502.       3506.       3506.       3506.       3509.       3509.       3509.       3509.       3509.       3509.    
        3510.       3510.       3510.       3510.       3510.       3510.       3508.       3508.       3508.       3510.    
        3510.       3510.       3514.       3514.       3514.       3515.       3515.       3515.       3515.       3515.    
        3515.       3512.       3512.       3512.       3509.       3509.       3509.       3506.       3506.       3506.    
        3507.       3507.       3507.       3514.       3514.       3514.       3518.       3518.       3518.       3520.    
        3520.       3520.       3520.       3523.       3523.       3523.       3525.       3525.       3525.       3526.    
        3526.       3526.       3526.       3526.       3526.       3528.       3528.       3528.       3530.       3530.    
        3530.       3531.       3531.       3531.       3532.       3532.       3532.       3534.       3534.       3534.    
        3535.       3535.       3535.       3534.       3534.       3534.       3534.       3537.       3536.       3536.    
        3537.       3537.       3535.       3533.       3536.       3541.       3541.       3544.       3545.       3545.    
        3547.       3548.       3548.       3549.       3549.       3550.    
  22    3505.       3505.       3500.       3491.       3491.       3494.       3493.       3492.       3492.       3492.    
        3491.       3486.       3482.       3484.       3485.       3485.       3487.       3487.       3487.       3488.    
        3488.       3488.       3488.       3488.       3488.       3488.       3490.       3490.       3490.       3493.    
        3493.       3493.       3493.       3493.       3493.       3491.       3491.       3491.       3491.       3491.    
        3491.       3492.       3492.       3492.       3494.       3494.       3494.       3497.       3497.       3497.    
        3495.       3495.       3495.       3495.       3495.       3495.       3495.       3495.       3495.       3495.    
        3495.       3495.       3494.       3494.       3494.       3495.       3495.       3495.       3496.       3496.    
        3496.       3497.       3497.       3497.       3497.       3499.       3499.       3499.       3502.       3502.    
        3502.       3506.       3506.       3506.       3509.       3509.       3509.       3509.       3509.       3509.    
        3510.       3510.       3510.       3510.       3510.       3510.       3508.       3508.       3506.       3510.    
        3510.       3510.       3514.       3514.       3514.       3515.       3515.       3515.       3515.       3515.    
        3515.       3512.       3512.       3512.       3509.       3509.       3509.       3506.       3506.       3506.    
        3507.       3507.       3507.       3514.       3514.       3514.       3518.       3518.       3518.       3520.    
        3520.       3520.       3520.       3523.       3523.       3523.       3525.       3525.       3525.       3526.    
        3526.       3526.       3526.       3526.       3526.       3528.       3528.       3528.       3530.       3530.    
        3530.       3531.       3531.       3531.       3532.       3532.       3532.       3531.       3534.       3534.    
        3535.       3535.       3535.       3534.       3534.       3534.       3534.       3537.       3536.       3536.    
        3537.       3537.       3535.       3533.       3536.       3541.       3541.       3544.       3545.       3545.    
        3547.       3548.       3548.       3549.       3549.       3550.    
  23    3506.       3502.       3493.       3490.       3490.       3489.       3491.       3493.       3491.       3491.    
        3490.       3486.       3485.       3486.       3485.       3485.       3487.       3487.       3487.       3488.    
        3488.       3488.       3488.       3489.       3489.       3489.       3491.       3491.       3491.       3492.    
        3492.       3492.       3494.       3494.       3494.       3494.       3494.       3494.       3493.       3493.    
        3493.       3493.       3493.       3493.       3495.       3495.       3495.       3496.       3496.       3496.    
        3495.       3495.       3495.       3496.       3496.       3496.       3497.       3497.       3497.       3498.    
        3498.       3498.       3497.       3497.       3497.       3496.       3496.       3496.       3496.       3496.    
        3496.       3495.       3495.       3495.       3495.       3498.       3498.       3498.       3499.       3499.    
        3499.       3502.       3502.       3502.       3504.       3504.       3504.       3503.       3503.       3503.    
        3505.       3505.       3505.       3506.       3506.       3506.       3506.       3506.       3506.       3506.    
        3506.       3506.       3506.       3506.       3506.       3507.       3507.       3507.       3508.       3508.    
        3508.       3508.       3508.       3508.       3509.       3509.       3509.       3511.       3511.       3511.    
        3514.       3514.       3514.       3517.       3517.       3517.       3518.       3518.       3518.       3520.    
        3520.       3520.       3520.       3522.       3522.       3522.       3523.       3523.       3523.       3524.    
        3524.       3524.       3524.       3524.       3524.       3524.       3524.       3524.       3526.       3526.    
        3526.       3526.       3526.       3526.       3528.       3528.       3528.       3531.       3531.       3531.    
        3533.       3533.       3533.       3533.       3533.       3534.       3534.       3535.       3535.       3537.    
        3539.       3539.       3538.       3537.       3537.       3541.       3541.       3543.       3545.       3545.    
        3546.       3546.       3546.       3546.       3547.       3549.    
  24    3504.       3501.       3493.       3490.       3490.       3488.       3488.       3492.       3490.       3490.    
        3488.       3487.       3490.       3489.       3490.       3490.       3491.       3491.       3491.       3492.    
        3492.       3492.       3492.       3493.       3493.       3493.       3494.       3494.       3494.       3496.    
        3496.       3496.       3498.       3498.       3498.       3499.       3499.       3499.       3498.       3498.    
        3498.       3497.       3497.       3497.       3497.       3497.       3497.       3497.       3497.       3497.    
        3497.       3497.       3497.       3498.       3498.       3498.       3499.       3499.       3499.       3501.    
        3501.       3501.       3501.       3501.       3501.       3502.       3502.       3502.       3502.       3502.    
        3502.       3501.       3501.       3501.       3501.       3501.       3501.       3501.       3503.       3503.    
        3503.       3503.       3503.       3503.       3502.       3502.       3502.       3503.       3503.       3503.    
        3503.       3503.       3503.       3505.       3505.       3505.       3507.       3507.       3507.       3508.    
        3508.       3508.       3508.       3508.       3508.       3508.       3508.       3508.       3510.       3510.    
        3510.       3510.       3510.       3510.       3513.       3513.       3513.       3515.       3515.       3515.    
        3517.       3517.       3517.       3517.       3517.       3517.       3519.       3519.       3519.       3519.    
        3519.       3519.       3519.       3521.       3521.       3521.       3524.       3524.       3524.       3525.    
        3525.       3525.       3527.       3527.       3527.       3529.       3529.       3529.       3531.       3531.    
        3531.       3532.       3532.       3532.       3534.       3534.       3534.       3534.       3534.       3534.    
        3533.       3533.       3533.       3532.       3532.       3533.       3533.       3535.       3538.       3539.    
        3541.       3541.       3543.       3543.       3542.       3541.       3541.       3542.       3544.       3546.    
        3544.       3544.       3544.       3546.       3547.       3549.    
  25    3500.       3498.       3491.       3486.       3486.       3488.       3487.       3494.       3491.       3491.    
        3489.       3488.       3490.       3491.       3493.       3493.       3495.       3495.       3495.       3494.    
        3494.       3494.       3494.       3495.       3495.       3495.       3497.       3497.       3497.       3499.    
        3499.       3499.       3499.       3499.       3499.       3499.       3499.       3499.       3499.       3499.    
        3499.       3498.       3498.       3498.       3497.       3497.       3497.       3497.       3497.       3497.    
        3499.       3499.       3499.       3501.       3501.       3501.       3503.       3503.       3503.       3505.    
        3505.       3505.       3506.       3506.       3506.       3506.       3506.       3506.       3507.       3507.    
        3507.       3508.       3508.       3508.       3508.       3507.       3507.       3507.       3506.       3506.    
        3506.       3504.       3504.       3504.       3505.       3505.       3505.       3507.       3507.       3507.    
        3507.       3507.       3507.       3508.       3508.       3508.       3509.       3509.       3509.       3511.    
        3511.       3511.       3514.       3514.       3514.       3515.       3515.       3515.       3517.       3517.    
        3517.       3517.       3517.       3517.       3516.       3516.       3516.       3516.       3516.       3516.    
        3516.       3516.       3516.       3516.       3516.       3516.       3518.       3518.       3518.       3519.    
        3519.       3519.       3519.       3522.       3522.       3522.       3525.       3525.       3525.       3526.    
        3526.       3526.       3529.       3529.       3529.       3531.       3531.       3531.       3535.       3535.    
        3535.       3539.       3539.       3539.       3542.       3542.       3542.       3542.       3542.       3542.    
        3537.       3537.       3537.       3534.       3534.       3535.       3535.       3537.       3539.       3539.    
        3540.       3540.       3543.       3546.       3545.       3546.       3546.       3546.       3546.       3548.    
        3550.       3550.       3550.       3549.       3549.       3551.    
  26    3498.       3493.       3489.       3488.       3488.       3489.       3490.       3493.       3492.       3492.    
        3491.       3490.       3489.       3490.       3493.       3493.       3495.       3495.       3495.       3493.    
        3493.       3493.       3493.       3493.       3493.       3493.       3496.       3496.       3496.       3499.    
        3499.       3499.       3500.       3500.       3500.       3498.       3498.       3498.       3498.       3498.    
        3498.       3497.       3497.       3497.       3497.       3497.       3497.       3498.       3498.       3498.    
        3500.       3500.       3500.       3502.       3502.       3502.       3500.       3500.       3500.       3501.    
        3501.       3501.       3503.       3503.       3503.       3504.       3504.       3504.       3505.       3505.    
        3505.       3507.       3507.       3507.       3507.       3509.       3509.       3509.       3507.       3507.    
        3507.       3507.       3507.       3507.       3508.       3508.       3508.       3508.       3508.       3508.    
        3506.       3506.       3506.       3506.       3506.       3506.       3507.       3507.       3507.       3508.    
        3508.       3508.       3511.       3511.       3511.       3513.       3513.       3513.       3515.       3515.    
        3515.       3517.       3517.       3517.       3518.       3518.       3518.       3517.       3517.       3517.    
        3517.       3517.       3517.       3516.       3516.       3516.       3518.       3518.       3518.       3521.    
        3521.       3521.       3521.       3522.       3522.       3522.       3527.       3527.       3527.       3527.    
        3527.       3527.       3529.       3529.       3529.       3531.       3531.       3531.       3533.       3533.    
        3533.       3536.       3536.       3536.       3541.       3541.       3541.       3543.       3543.       3543.    
        3543.       3543.       3543.       3541.       3541.       3540.       3540.       3541.       3541.       3539.    
        3539.       3539.       3544.       3546.       3546.       3545.       3545.       3547.       3547.       3546.    
        3548.       3550.       3550.       3551.       3551.       3552.    
  27    3498.       3493.       3489.       3488.       3488.       3489.       3490.       3493.       3492.       3492.    
        3491.       3490.       3489.       3490.       3493.       3493.       3495.       3495.       3495.       3493.    
        3493.       3493.       3493.       3493.       3493.       3493.       3496.       3496.       3496.       3499.    
        3499.       3499.       3500.       3500.       3500.       3498.       3498.       3498.       3498.       3498.    
        3498.       3497.       3497.       3497.       3497.       3497.       3497.       3498.       3498.       3498.    
        3500.       3500.       3500.       3502.       3502.       3502.       3500.       3500.       3500.       3501.    
        3501.       3501.       3503.       3503.       3503.       3504.       3504.       3504.       3505.       3505.    
        3505.       3507.       3507.       3507.       3507.       3509.       3509.       3509.       3507.       3507.    
        3507.       3507.       3507.       3507.       3508.       3508.       3508.       3508.       3508.       3508.    
        3506.       3506.       3506.       3506.       3506.       3506.       3507.       3507.       3507.       3508.    
        3508.       3508.       3511.       3511.       3511.       3513.       3513.       3513.       3515.       3515.    
        3515.       3517.       3517.       3517.       3518.       3518.       3518.       3517.       3517.       3517.    
        3517.       3517.       3517.       3516.       3516.       3516.       3518.       3518.       3518.       3521.    
        3521.       3521.       3521.       3522.       3522.       3522.       3527.       3527.       3527.       3527.    
        3527.       3527.       3529.       3529.       3529.       3531.       3531.       3531.       3533.       3533.    
        3533.       3536.       3536.       3536.       3541.       3541.       3541.       3543.       3543.       3543.    
        3543.       3543.       3543.       3541.       3541.       3540.       3540.       3541.       3541.       3539.    
        3539.       3539.       3544.       3546.       3546.       3545.       3545.       3547.       3547.       3546.    
        3548.       3550.       3550.       3551.       3551.       3552.    
  28    3495.       3492.       3491.       3489.       3489.       3491.       3491.       3490.       3490.       3490.    
        3489.       3491.       3494.       3495.       3497.       3497.       3497.       3497.       3497.       3496.    
        3496.       3496.       3496.       3495.       3495.       3495.       3498.       3498.       3498.       3500.    
        3500.       3500.       3500.       3500.       3500.       3499.       3499.       3499.       3501.       3501.    
        3501.       3500.       3500.       3500.       3498.       3498.       3498.       3500.       3500.       3500.    
        3501.       3501.       3501.       3502.       3502.       3502.       3501.       3501.       3501.       3501.    
        3501.       3501.       3503.       3503.       3503.       3505.       3505.       3505.       3505.       3505.    
        3505.       3505.       3505.       3505.       3505.       3505.       3505.       3505.       3506.       3506.    
        3506.       3507.       3507.       3507.       3509.       3509.       3509.       3510.       3510.       3510.    
        3509.       3509.       3509.       3509.       3509.       3509.       3510.       3510.       3510.       3510.    
        3510.       3510.       3511.       3511.       3511.       3513.       3513.       3513.       3513.       3513.    
        3513.       3515.       3515.       3515.       3518.       3518.       3518.       3517.       3517.       3517.    
        3516.       3516.       3516.       3516.       3516.       3516.       3520.       3520.       3520.       3523.    
        3523.       3523.       3523.       3525.       3525.       3525.       3527.       3527.       3527.       3530.    
        3530.       3530.       3531.       3531.       3531.       3531.       3531.       3531.       3532.       3532.    
        3532.       3535.       3535.       3535.       3537.       3537.       3537.       3541.       3541.       3541.    
        3543.       3543.       3543.       3542.       3542.       3539.       3539.       3541.       3543.       3543.    
        3543.       3543.       3545.       3546.       3545.       3543.       3543.       3545.       3548.       3546.    
        3546.       3545.       3545.       3547.       3548.       3549.    
  29    3495.       3492.       3491.       3489.       3489.       3491.       3491.       3490.       3490.       3490.    
        3489.       3491.       3494.       3495.       3497.       3497.       3497.       3497.       3497.       3496.    
        3496.       3496.       3496.       3495.       3495.       3495.       3498.       3498.       3498.       3500.    
        3500.       3500.       3500.       3500.       3500.       3499.       3499.       3499.       3501.       3501.    
        3501.       3500.       3500.       3500.       3498.       3498.       3498.       3500.       3500.       3500.    
        3501.       3501.       3501.       3502.       3502.       3502.       3501.       3501.       3501.       3501.    
        3501.       3501.       3503.       3503.       3503.       3505.       3505.       3505.       3505.       3505.    
        3505.       3505.       3505.       3505.       3505.       3505.       3505.       3505.       3506.       3506.    
        3506.       3507.       3507.       3507.       3509.       3509.       3509.       3510.       3510.       3510.    
        3509.       3509.       3509.       3509.       3509.       3509.       3510.       3510.       3510.       3510.    
        3510.       3510.       3511.       3511.       3511.       3513.       3513.       3513.       3513.       3513.    
        3513.       3515.       3515.       3515.       3518.       3518.       3518.       3517.       3517.       3517.    
        3516.       3516.       3516.       3516.       3516.       3516.       3520.       3520.       3520.       3523.    
        3523.       3523.       3523.       3525.       3525.       3525.       3527.       3527.       3527.       3530.    
        3530.       3530.       3531.       3531.       3531.       3531.       3531.       3531.       3532.       3532.    
        3532.       3535.       3535.       3535.       3537.       3537.       3537.       3541.       3541.       3541.    
        3543.       3543.       3543.       3542.       3542.       3539.       3539.       3541.       3543.       3543.    
        3543.       3543.       3545.       3546.       3545.       3543.       3543.       3545.       3548.       3546.    
        3546.       3545.       3545.       3547.       3548.       3549.    
  30    3495.       3492.       3491.       3489.       3489.       3491.       3491.       3490.       3490.       3490.    
        3489.       3491.       3494.       3495.       3497.       3497.       3497.       3497.       3497.       3496.    
        3496.       3496.       3496.       3495.       3495.       3495.       3498.       3498.       3498.       3500.    
        3500.       3500.       3500.       3500.       3500.       3499.       3499.       3499.       3501.       3501.    
        3501.       3500.       3500.       3500.       3498.       3498.       3498.       3500.       3500.       3500.    
        3501.       3501.       3501.       3502.       3502.       3502.       3501.       3501.       3501.       3501.    
        3501.       3501.       3503.       3503.       3503.       3505.       3505.       3505.       3505.       3505.    
        3505.       3505.       3505.       3505.       3505.       3505.       3505.       3505.       3506.       3506.    
        3506.       3507.       3507.       3507.       3509.       3509.       3509.       3510.       3510.       3510.    
        3509.       3509.       3509.       3509.       3509.       3509.       3510.       3510.       3510.       3510.    
        3510.       3510.       3511.       3511.       3511.       3513.       3513.       3513.       3513.       3513.    
        3513.       3515.       3515.       3515.       3518.       3518.       3518.       3517.       3517.       3517.    
        3516.       3516.       3516.       3516.       3516.       3516.       3520.       3520.       3520.       3523.    
        3523.       3523.       3523.       3525.       3525.       3525.       3527.       3527.       3527.       3530.    
        3530.       3530.       3531.       3531.       3531.       3531.       3531.       3531.       3532.       3532.    
        3532.       3535.       3535.       3535.       3537.       3537.       3537.       3541.       3541.       3541.    
        3543.       3543.       3543.       3542.       3542.       3539.       3539.       3541.       3543.       3543.    
        3543.       3543.       3545.       3546.       3545.       3543.       3543.       3545.       3548.       3546.    
        3546.       3545.       3545.       3547.       3548.       3549.    
  31    3497.       3495.       3494.       3492.       3492.       3492.       3491.       3491.       3488.       3488.    
        3487.       3490.       3497.       3501.       3500.       3500.       3497.       3497.       3497.       3497.    
        3497.       3497.       3497.       3498.       3498.       3498.       3503.       3503.       3503.       3503.    
        3503.       3503.       3500.       3500.       3500.       3499.       3499.       3499.       3500.       3500.    
        3500.       3499.       3499.       3499.       3499.       3499.       3499.       3502.       3502.       3502.    
        3504.       3504.       3504.       3503.       3503.       3503.       3502.       3502.       3502.       3502.    
        3502.       3502.       3503.       3503.       3503.       3505.       3505.       3505.       3506.       3506.    
        3506.       3507.       3507.       3507.       3507.       3507.       3507.       3507.       3507.       3507.    
        3507.       3508.       3508.       3508.       3510.       3510.       3510.       3511.       3511.       3511.    
        3511.       3511.       3511.       3511.       3511.       3511.       3512.       3512.       3512.       3513.    
        3513.       3513.       3512.       3512.       3512.       3511.       3511.       3511.       3513.       3513.    
        3513.       3516.       3516.       3516.       3517.       3517.       3517.       3516.       3516.       3516.    
        3517.       3517.       3517.       3520.       3520.       3520.       3522.       3522.       3522.       3522.    
        3522.       3522.       3522.       3522.       3522.       3522.       3526.       3526.       3526.       3530.    
        3530.       3530.       3530.       3530.       3530.       3529.       3529.       3529.       3530.       3530.    
        3530.       3533.       3533.       3533.       3538.       3538.       3538.       3541.       3541.       3541.    
        3541.       3541.       3541.       3539.       3539.       3539.       3539.       3540.       3543.       3545.    
        3546.       3546.       3544.       3544.       3544.       3544.       3544.       3545.       3548.       3548.    
        3547.       3549.       3549.       3550.       3550.       3549.    
  32    3497.       3495.       3494.       3492.       3492.       3492.       3491.       3491.       3488.       3488.    
        3487.       3490.       3497.       3501.       3500.       3500.       3497.       3497.       3497.       3497.    
        3497.       3497.       3497.       3498.       3498.       3498.       3503.       3503.       3503.       3503.    
        3503.       3503.       3500.       3500.       3500.       3499.       3499.       3499.       3500.       3500.    
        3500.       3499.       3499.       3499.       3499.       3499.       3499.       3502.       3502.       3502.    
        3504.       3504.       3504.       3503.       3503.       3503.       3502.       3502.       3502.       3502.    
        3502.       3502.       3503.       3503.       3503.       3505.       3505.       3505.       3506.       3506.    
        3506.       3507.       3507.       3507.       3507.       3507.       3507.       3507.       3507.       3507.    
        3507.       3508.       3508.       3508.       3510.       3510.       3510.       3511.       3511.       3511.    
        3511.       3511.       3511.       3511.       3511.       3511.       3512.       3512.       3512.       3513.    
        3513.       3513.       3512.       3512.       3512.       3511.       3511.       3511.       3513.       3513.    
        3513.       3516.       3516.       3516.       3517.       3517.       3517.       3516.       3516.       3516.    
        3517.       3517.       3517.       3520.       3520.       3520.       3522.       3522.       3522.       3522.    
        3522.       3522.       3522.       3522.       3522.       3522.       3526.       3526.       3526.       3530.    
        3530.       3530.       3530.       3530.       3530.       3529.       3529.       3529.       3530.       3530.    
        3530.       3533.       3533.       3533.       3538.       3538.       3538.       3541.       3541.       3541.    
        3541.       3541.       3541.       3539.       3539.       3539.       3539.       3540.       3543.       3545.    
        3546.       3546.       3544.       3544.       3544.       3544.       3544.       3545.       3548.       3548.    
        3547.       3549.       3549.       3550.       3550.       3549.    
  33    3497.       3495.       3494.       3492.       3492.       3492.       3491.       3491.       3488.       3488.    
        3487.       3490.       3497.       3501.       3500.       3500.       3497.       3497.       3497.       3497.    
        3497.       3497.       3497.       3498.       3498.       3498.       3503.       3503.       3503.       3503.    
        3503.       3503.       3500.       3500.       3500.       3499.       3499.       3499.       3500.       3500.    
        3500.       3499.       3499.       3499.       3499.       3499.       3499.       3502.       3502.       3502.    
        3504.       3504.       3504.       3503.       3503.       3503.       3502.       3502.       3502.       3502.    
        3502.       3502.       3503.       3503.       3503.       3505.       3505.       3505.       3506.       3506.    
        3506.       3507.       3507.       3507.       3507.       3507.       3507.       3507.       3507.       3507.    
        3507.       3508.       3508.       3508.       3510.       3510.       3510.       3511.       3511.       3511.    
        3511.       3511.       3511.       3511.       3511.       3511.       3512.       3512.       3512.       3513.    
        3513.       3513.       3512.       3512.       3512.       3511.       3511.       3511.       3513.       3513.    
        3513.       3516.       3516.       3516.       3517.       3517.       3517.       3516.       3516.       3516.    
        3517.       3517.       3517.       3520.       3520.       3520.       3522.       3522.       3522.       3522.    
        3522.       3522.       3522.       3522.       3522.       3522.       3526.       3526.       3526.       3530.    
        3530.       3530.       3530.       3530.       3530.       3529.       3529.       3529.       3530.       3530.    
        3530.       3533.       3533.       3533.       3538.       3538.       3538.       3541.       3541.       3541.    
        3541.       3541.       3541.       3539.       3539.       3539.       3539.       3540.       3543.       3545.    
        3546.       3546.       3544.       3544.       3544.       3544.       3544.       3545.       3548.       3548.    
        3547.       3549.       3549.       3550.       3550.       3549.    
  34    3504.       3498.       3496.       3493.       3493.       3493.       3493.       3488.       3488.       3488.    
        3486.       3489.       3494.       3498.       3497.       3497.       3497.       3497.       3497.       3494.    
        3494.       3494.       3494.       3494.       3494.       3494.       3500.       3500.       3500.       3502.    
        3502.       3502.       3500.       3500.       3500.       3499.       3499.       3499.       3502.       3502.    
        3502.       3504.       3504.       3504.       3502.       3502.       3502.       3501.       3501.       3501.    
        3502.       3502.       3502.       3504.       3504.       3504.       3503.       3503.       3503.       3504.    
        3504.       3504.       3506.       3506.       3506.       3508.       3508.       3508.       3511.       3511.    
        3511.       3510.       3510.       3510.       3510.       3511.       3511.       3511.       3511.       3511.    
        3511.       3511.       3511.       3511.       3510.       3510.       3510.       3511.       3511.       3511.    
        3512.       3512.       3512.       3513.       3513.       3513.       3514.       3514.       3514.       3515.    
        3515.       3515.       3515.       3515.       3515.       3516.       3516.       3516.       3518.       3518.    
        3518.       3521.       3521.       3521.       3521.       3521.       3521.       3521.       3521.       3521.    
        3523.       3523.       3523.       3525.       3525.       3525.       3524.       3524.       3524.       3520.    
        3520.       3520.       3520.       3520.       3520.       3520.       3524.       3524.       3524.       3529.    
        3529.       3529.       3530.       3530.       3530.       3530.       3530.       3530.       3531.       3531.    
        3531.       3530.       3530.       3530.       3531.       3531.       3531.       3535.       3535.       3535.    
        3537.       3537.       3537.       3539.       3539.       3540.       3540.       3542.       3544.       3544.    
        3546.       3546.       3546.       3546.       3545.       3546.       3546.       3551.       3553.       3551.    
        3550.       3551.       3551.       3552.       3553.       3553.    
  35    3504.       3498.       3496.       3493.       3493.       3493.       3493.       3488.       3488.       3488.    
        3486.       3489.       3494.       3498.       3497.       3497.       3497.       3497.       3497.       3494.    
        3494.       3494.       3494.       3494.       3494.       3494.       3500.       3500.       3500.       3502.    
        3502.       3502.       3500.       3500.       3500.       3499.       3499.       3499.       3502.       3502.    
        3502.       3504.       3504.       3504.       3502.       3502.       3502.       3501.       3501.       3501.    
        3502.       3502.       3502.       3504.       3504.       3504.       3503.       3503.       3503.       3504.    
        3504.       3504.       3506.       3506.       3506.       3508.       3508.       3508.       3511.       3511.    
        3511.       3510.       3510.       3510.       3510.       3511.       3511.       3511.       3511.       3511.    
        3511.       3511.       3511.       3511.       3510.       3510.       3510.       3511.       3511.       3511.    
        3512.       3512.       3512.       3513.       3513.       3513.       3514.       3514.       3514.       3515.    
        3515.       3515.       3515.       3515.       3515.       3516.       3516.       3516.       3518.       3518.    
        3518.       3521.       3521.       3521.       3521.       3521.       3521.       3521.       3521.       3521.    
        3523.       3523.       3523.       3525.       3525.       3525.       3524.       3524.       3524.       3520.    
        3520.       3520.       3520.       3520.       3520.       3520.       3524.       3524.       3524.       3529.    
        3529.       3529.       3530.       3530.       3530.       3530.       3530.       3530.       3531.       3531.    
        3531.       3530.       3530.       3530.       3531.       3531.       3531.       3535.       3535.       3535.    
        3537.       3537.       3537.       3539.       3539.       3540.       3540.       3542.       3544.       3544.    
        3546.       3546.       3546.       3546.       3545.       3546.       3546.       3551.       3553.       3551.    
        3550.       3551.       3551.       3552.       3553.       3553.    
  36    3504.       3498.       3496.       3493.       3493.       3493.       3493.       3488.       3488.       3488.    
        3486.       3489.       3494.       3498.       3497.       3497.       3497.       3497.       3497.       3494.    
        3494.       3494.       3494.       3494.       3494.       3494.       3500.       3500.       3500.       3502.    
        3502.       3502.       3500.       3500.       3500.       3499.       3499.       3499.       3502.       3502.    
        3502.       3504.       3504.       3504.       3502.       3502.       3502.       3501.       3501.       3501.    
        3502.       3502.       3502.       3504.       3504.       3504.       3503.       3503.       3503.       3504.    
        3504.       3504.       3506.       3506.       3506.       3508.       3508.       3508.       3511.       3511.    
        3511.       3510.       3510.       3510.       3510.       3511.       3511.       3511.       3511.       3511.    
        3511.       3511.       3511.       3511.       3510.       3510.       3510.       3511.       3511.       3511.    
        3512.       3512.       3512.       3513.       3513.       3513.       3514.       3514.       3514.       3515.    
        3515.       3515.       3515.       3515.       3515.       3516.       3516.       3516.       3518.       3518.    
        3518.       3521.       3521.       3521.       3521.       3521.       3521.       3521.       3521.       3521.    
        3523.       3523.       3523.       3525.       3525.       3525.       3524.       3524.       3524.       3524.    
        3520.       3520.       3520.       3520.       3520.       3520.       3524.       3524.       3524.       3529.    
        3529.       3529.       3530.       3530.       3530.       3530.       3530.       3530.       3531.       3531.    
        3531.       3530.       3530.       3530.       3531.       3531.       3531.       3535.       3535.       3535.    
        3537.       3537.       3537.       3539.       3539.       3540.       3540.       3542.       3544.       3544.    
        3546.       3546.       3546.       3546.       3545.       3546.       3546.       3551.       3553.       3551.    
        3550.       3551.       3551.       3552.       3553.       3553.    
  37    3509.       3504.       3498.       3496.       3496.       3496.       3494.       3491.       3490.       3490.    
        3487.       3488.       3493.       3494.       3494.       3494.       3496.       3496.       3496.       3493.    
        3493.       3493.       3493.       3491.       3491.       3491.       3494.       3494.       3494.       3496.    
        3496.       3496.       3497.       3497.       3497.       3497.       3497.       3497.       3500.       3500.    
        3500.       3502.       3502.       3502.       3501.       3501.       3501.       3502.       3502.       3502.    
        3504.       3504.       3504.       3505.       3505.       3505.       3507.       3507.       3507.       3508.    
        3508.       3508.       3510.       3510.       3510.       3511.       3511.       3511.       3512.       3512.    
        3512.       3511.       3511.       3511.       3511.       3511.       3511.       3511.       3511.       3511.    
        3511.       3512.       3512.       3512.       3512.       3512.       3512.       3512.       3512.       3512.    
        3514.       3514.       3514.       3515.       3515.       3515.       3516.       3516.       3516.       3517.    
        3517.       3517.       3517.       3517.       3517.       3518.       3518.       3518.       3518.       3518.    
        3518.       3519.       3519.       3519.       3520.       3520.       3520.       3521.       3521.       3521.    
        3522.       3522.       3522.       3525.       3525.       3525.       3526.       3526.       3526.       3525.    
        3525.       3525.       3525.       3524.       3524.       3524.       3527.       3527.       3527.       3529.    
        3529.       3529.       3530.       3530.       3530.       3530.       3530.       3530.       3530.       3530.    
        3530.       3530.       3530.       3530.       3529.       3529.       3529.       3531.       3531.       3531.    
        3533.       3533.       3533.       3538.       3538.       3541.       3541.       3540.       3540.       3542.    
        3544.       3544.       3545.       3549.       3550.       3552.       3552.       3552.       3553.       3550.    
        3549.       3551.       3551.       3551.       3553.       3555.    
  38    3509.       3504.       3498.       3496.       3496.       3496.       3494.       3491.       3490.       3490.    
        3487.       3488.       3493.       3494.       3494.       3494.       3496.       3496.       3496.       3493.    
        3493.       3493.       3493.       3491.       3491.       3491.       3494.       3494.       3494.       3496.    
        3496.       3496.       3497.       3497.       3497.       3497.       3497.       3497.       3500.       3500.    
        3500.       3502.       3502.       3502.       3501.       3501.       3501.       3502.       3502.       3502.    
        3504.       3504.       3504.       3505.       3505.       3505.       3507.       3507.       3507.       3508.    
        3508.       3508.       3510.       3510.       3510.       3511.       3511.       3511.       3512.       3512.    
        3512.       3511.       3511.       3511.       3511.       3511.       3511.       3511.       3511.       3511.    
        3511.       3512.       3512.       3512.       3512.       3512.       3512.       3512.       3512.       3512.    
        3514.       3514.       3514.       3515.       3515.       3515.       3516.       3516.       3516.       3517.    
        3517.       3517.       3517.       3517.       3517.       3518.       3518.       3518.       3518.       3518.    
        3518.       3519.       3519.       3519.       3520.       3520.       3520.       3521.       3521.       3521.    
        3522.       3522.       3522.       3525.       3525.       3525.       3526.       3526.       3526.       3525.    
        3525.       3525.       3525.       3524.       3524.       3524.       3527.       3527.       3527.       3529.    
        3529.       3529.       3530.       3530.       3530.       3530.       3530.       3530.       3530.       3530.    
        3530.       3530.       3530.       3530.       3529.       3529.       3529.       3531.       3531.       3531.    
        3533.       3533.       3533.       3538.       3538.       3541.       3541.       3540.       3540.       3542.    
        3544.       3544.       3545.       3549.       3550.       3552.       3552.       3552.       3553.       3550.    
        3549.       3551.       3551.       3551.       3553.       3555.    
  39    3509.       3504.       3498.       3496.       3496.       3496.       3494.       3491.       3490.       3490.    
        3487.       3488.       3493.       3494.       3494.       3494.       3496.       3496.       3496.       3493.    
        3493.       3493.       3493.       3491.       3491.       3491.       3494.       3494.       3494.       3496.    
        3496.       3496.       3497.       3497.       3497.       3497.       3497.       3497.       3500.       3500.    
        3500.       3502.       3502.       3502.       3501.       3501.       3501.       3502.       3502.       3502.    
        3504.       3504.       3504.       3505.       3505.       3505.       3507.       3507.       3507.       3508.    
        3508.       3508.       3510.       3510.       3510.       3511.       3511.       3511.       3512.       3512.    
        3512.       3511.       3511.       3511.       3511.       3511.       3511.       3511.       3511.       3511.    
        3511.       3512.       3512.       3512.       3512.       3512.       3512.       3512.       3512.       3512.    
        3514.       3514.       3514.       3515.       3515.       3515.       3516.       3516.       3516.       3517.    
        3517.       3517.       3517.       3517.       3517.       3518.       3518.       3518.       3518.       3518.    
        3518.       3519.       3519.       3519.       3520.       3520.       3520.       3521.       3521.       3521.    
        3522.       3522.       3522.       3525.       3525.       3525.       3526.       3526.       3526.       3525.    
        3525.       3525.       3525.       3524.       3524.       3524.       3527.       3527.       3527.       3529.    
        3529.       3529.       3530.       3530.       3530.       3530.       3530.       3530.       3530.       3530.    
        3530.       3530.       3530.       3530.       3529.       3529.       3529.       3531.       3531.       3531.    
        3533.       3533.       3533.       3538.       3538.       3541.       3541.       3540.       3540.       3542.    
        3544.       3544.       3545.       3549.       3550.       3552.       3552.       3552.       3553.       3550.    
        3549.       3551.       3551.       3551.       3553.       3555.    
  40    3518.       3512.       3504.       3497.       3497.       3497.       3496.       3496.       3490.       3490.    
        3493.       3495.       3489.       3493.       3495.       3495.       3493.       3493.       3493.       3495.    
        3495.       3495.       3495.       3490.       3490.       3490.       3490.       3490.       3490.       3493.    
        3493.       3493.       3494.       3494.       3494.       3499.       3499.       3499.       3501.       3501.    
        3501.       3502.       3502.       3502.       3501.       3501.       3501.       3501.       3501.       3501.    
        3501.       3501.       3501.       3504.       3504.       3504.       3505.       3505.       3505.       3506.    
        3506.       3506.       3506.       3506.       3506.       3507.       3507.       3507.       3506.       3506.    
        3506.       3506.       3506.       3506.       3506.       3508.       3508.       3508.       3509.       3509.    
        3509.       3509.       3509.       3509.       3509.       3509.       3509.       3510.       3510.       3510.    
        3514.       3514.       3514.       3515.       3515.       3515.       3515.       3515.       3515.       3515.    
        3515.       3515.       3517.       3517.       3517.       3516.       3516.       3516.       3516.       3516.    
        3516.       3516.       3516.       3516.       3516.       3516.       3516.       3517.       3517.       3517.    
        3519.       3519.       3519.       3521.       3521.       3521.       3522.       3522.       3522.       3523.    
        3523.       3523.       3523.       3523.       3523.       3523.       3523.       3523.       3523.       3526.    
        3526.       3526.       3529.       3529.       3529.       3531.       3531.       3531.       3531.       3531.    
        3531.       3532.       3532.       3532.       3533.       3533.       3533.       3534.       3534.       3534.    
        3536.       3536.       3536.       3540.       3540.       3540.       3540.       3540.       3542.       3545.    
        3544.       3544.       3544.       3547.       3545.       3550.       3550.       3552.       3552.       3550.    
        3548.       3549.       3549.       3550.       3552.       3554.    
  41    3518.       3512.       3504.       3497.       3497.       3497.       3496.       3496.       3490.       3490.    
        3493.       3495.       3489.       3493.       3495.       3495.       3493.       3493.       3493.       3495.    
        3495.       3495.       3495.       3490.       3490.       3490.       3490.       3490.       3490.       3493.    
        3493.       3493.       3494.       3494.       3494.       3499.       3499.       3499.       3501.       3501.    
        3501.       3502.       3502.       3502.       3501.       3501.       3501.       3501.       3501.       3501.    
        3501.       3501.       3501.       3504.       3504.       3504.       3505.       3505.       3505.       3506.    
        3506.       3506.       3506.       3506.       3506.       3507.       3507.       3507.       3506.       3506.    
        3506.       3506.       3506.       3506.       3506.       3508.       3508.       3508.       3509.       3509.    
        3509.       3509.       3509.       3509.       3509.       3509.       3509.       3510.       3510.       3510.    
        3514.       3514.       3514.       3515.       3515.       3515.       3515.       3515.       3515.       3515.    
        3515.       3515.       3517.       3517.       3517.       3516.       3516.       3516.       3516.       3516.    
        3516.       3516.       3516.       3516.       3516.       3516.       3516.       3517.       3517.       3517.    
        3519.       3519.       3519.       3521.       3521.       3521.       3522.       3522.       3522.       3523.    
        3523.       3523.       3523.       3523.       3523.       3523.       3523.       3523.       3523.       3526.    
        3526.       3526.       3529.       3529.       3529.       3531.       3531.       3531.       3531.       3531.    
        3531.       3532.       3532.       3532.       3533.       3533.       3533.       3534.       3534.       3534.    
        3536.       3536.       3536.       3540.       3540.       3540.       3540.       3540.       3542.       3545.    
        3544.       3544.       3544.       3547.       3545.       3550.       3550.       3552.       3552.       3550.    
        3548.       3549.       3549.       3550.       3552.       3554.    
  42    3518.       3512.       3504.       3497.       3497.       3497.       3496.       3496.       3490.       3490.    
        3493.       3495.       3489.       3493.       3495.       3495.       3493.       3493.       3493.       3495.    
        3495.       3495.       3495.       3490.       3490.       3490.       3490.       3490.       3490.       3493.    
        3493.       3493.       3494.       3494.       3494.       3499.       3499.       3499.       3501.       3501.    
        3501.       3502.       3502.       3502.       3501.       3501.       3501.       3501.       3501.       3501.    
        3501.       3501.       3501.       3504.       3504.       3504.       3505.       3505.       3505.       3506.    
        3506.       3506.       3506.       3506.       3506.       3507.       3507.       3507.       3506.       3506.    
        3506.       3506.       3506.       3506.       3506.       3508.       3508.       3508.       3509.       3509.    
        3509.       3509.       3509.       3509.       3509.       3509.       3509.       3510.       3510.       3510.    
        3514.       3514.       3514.       3515.       3515.       3515.       3515.       3515.       3515.       3515.    
        3515.       3515.       3517.       3517.       3517.       3516.       3516.       3516.       3516.       3516.    
        3516.       3516.       3516.       3516.       3516.       3516.       3516.       3517.       3517.       3517.    
        3519.       3519.       3519.       3521.       3521.       3521.       3522.       3522.       3522.       3523.    
        3523.       3523.       3523.       3523.       3523.       3523.       3523.       3523.       3523.       3526.    
        3526.       3526.       3529.       3529.       3529.       3531.       3531.       3531.       3531.       3531.    
        3531.       3532.       3532.       3532.       3533.       3533.       3533.       3534.       3534.       3534.    
        3536.       3536.       3536.       3540.       3540.       3540.       3540.       3540.       3542.       3545.    
        3544.       3544.       3544.       3547.       3545.       3550.       3550.       3552.       3552.       3550.    
        3548.       3549.       3549.       3550.       3552.       3554.    
  43    3518.       3512.       3504.       3497.       3497.       3497.       3496.       3496.       3490.       3490.    
        3493.       3495.       3489.       3493.       3495.       3495.       3493.       3493.       3493.       3495.    
        3495.       3495.       3495.       3490.       3490.       3490.       3490.       3490.       3490.       3493.    
        3493.       3493.       3494.       3494.       3494.       3499.       3499.       3499.       3501.       3501.    
        3501.       3502.       3502.       3502.       3501.       3501.       3501.       3501.       3501.       3501.    
        3501.       3501.       3501.       3504.       3504.       3504.       3505.       3505.       3505.       3506.    
        3506.       3506.       3506.       3506.       3506.       3507.       3507.       3507.       3506.       3506.    
        3506.       3506.       3506.       3506.       3506.       3508.       3508.       3508.       3509.       3509.    
        3509.       3509.       3509.       3509.       3509.       3509.       3509.       3510.       3510.       3510.    
        3514.       3514.       3514.       3515.       3515.       3515.       3515.       3515.       3515.       3515.    
        3515.       3515.       3517.       3517.       3517.       3516.       3516.       3516.       3516.       3516.    
        3516.       3516.       3516.       3516.       3516.       3516.       3516.       3517.       3517.       3517.    
        3519.       3519.       3519.       3521.       3521.       3521.       3522.       3522.       3522.       3523.    
        3523.       3523.       3523.       3523.       3523.       3523.       3523.       3523.       3523.       3526.    
        3526.       3526.       3529.       3529.       3529.       3531.       3531.       3531.       3531.       3531.    
        3531.       3532.       3532.       3532.       3533.       3533.       3533.       3534.       3534.       3534.    
        3536.       3536.       3536.       3540.       3540.       3540.       3540.       3540.       3542.       3545.    
        3544.       3544.       3544.       3547.       3545.       3550.       3550.       3552.       3552.       3550.    
        3548.       3549.       3549.       3550.       3552.       3554.    
  44    3522.       3515.       3507.       3496.       3496.       3496.       3500.       3503.       3498.       3498.    
        3493.       3490.       3498.       3495.       3496.       3496.       3493.       3493.       3493.       3494.    
        3494.       3494.       3494.       3494.       3494.       3494.       3493.       3493.       3493.       3494.    
        3494.       3494.       3498.       3498.       3498.       3499.       3499.       3499.       3499.       3499.    
        3499.       3501.       3501.       3501.       3502.       3502.       3502.       3502.       3502.       3502.    
        3502.       3502.       3502.       3505.       3505.       3505.       3507.       3507.       3507.       3509.    
        3509.       3509.       3509.       3509.       3509.       3510.       3510.       3510.       3509.       3509.    
        3509.       3509.       3509.       3509.       3509.       3510.       3510.       3510.       3511.       3511.    
        3511.       3509.       3509.       3509.       3509.       3509.       3509.       3511.       3511.       3511.    
        3513.       3513.       3513.       3513.       3513.       3513.       3516.       3516.       3516.       3517.    
        3517.       3517.       3517.       3517.       3517.       3516.       3516.       3516.       3515.       3515.    
        3515.       3515.       3515.       3515.       3515.       3515.       3515.       3513.       3513.       3513.    
        3513.       3513.       3513.       3515.       3515.       3515.       3517.       3517.       3517.       3519.    
        3519.       3519.       3519.       3520.       3520.       3520.       3519.       3519.       3519.       3521.    
        3521.       3521.       3524.       3524.       3524.       3529.       3529.       3529.       3531.       3531.    
        3531.       3533.       3533.       3533.       3534.       3534.       3534.       3536.       3536.       3536.    
        3539.       3539.       3539.       3540.       3540.       3539.       3539.       3539.       3541.       3546.    
        3548.       3548.       3550.       3552.       3553.       3551.       3551.       3550.       3550.       3551.    
        3550.       3550.       3550.       3550.       3552.       3555.    
  45    3522.       3515.       3507.       3496.       3496.       3496.       3500.       3503.       3498.       3498.    
        3493.       3490.       3498.       3495.       3496.       3496.       3493.       3493.       3493.       3494.    
        3494.       3494.       3494.       3494.       3494.       3494.       3493.       3493.       3493.       3494.    
        3494.       3494.       3498.       3498.       3498.       3499.       3499.       3499.       3499.       3499.    
        3499.       3501.       3501.       3501.       3502.       3502.       3502.       3502.       3502.       3502.    
        3502.       3502.       3502.       3505.       3505.       3505.       3507.       3507.       3507.       3509.    
        3509.       3509.       3509.       3509.       3509.       3510.       3510.       3510.       3509.       3509.    
        3509.       3509.       3509.       3509.       3509.       3510.       3510.       3510.       3511.       3511.    
        3511.       3509.       3509.       3509.       3509.       3509.       3509.       3511.       3511.       3511.    
        3513.       3513.       3513.       3513.       3513.       3513.       3516.       3516.       3516.       3517.    
        3517.       3517.       3517.       3517.       3517.       3516.       3516.       3516.       3515.       3515.    
        3515.       3515.       3515.       3515.       3515.       3515.       3515.       3513.       3513.       3513.    
        3513.       3513.       3513.       3515.       3515.       3515.       3517.       3517.       3517.       3519.    
        3519.       3519.       3519.       3520.       3520.       3520.       3519.       3519.       3519.       3521.    
        3521.       3521.       3524.       3524.       3524.       3529.       3529.       3529.       3531.       3531.    
        3531.       3533.       3533.       3533.       3534.       3534.       3534.       3536.       3536.       3536.    
        3539.       3539.       3539.       3540.       3540.       3539.       3539.       3539.       3541.       3546.    
        3548.       3548.       3550.       3552.       3553.       3551.       3551.       3550.       3550.       3551.    
        3550.       3550.       3550.       3550.       3552.       3555.    
  46    3522.       3515.       3507.       3496.       3496.       3496.       3500.       3503.       3498.       3498.    
        3493.       3490.       3498.       3495.       3496.       3496.       3493.       3493.       3493.       3494.    
        3494.       3494.       3494.       3494.       3494.       3494.       3493.       3493.       3493.       3494.    
        3494.       3494.       3498.       3498.       3498.       3499.       3499.       3499.       3499.       3499.    
        3499.       3501.       3501.       3501.       3502.       3502.       3502.       3502.       3502.       3502.    
        3502.       3502.       3502.       3505.       3505.       3505.       3507.       3507.       3507.       3509.    
        3509.       3509.       3509.       3509.       3509.       3510.       3510.       3510.       3509.       3509.    
        3509.       3509.       3509.       3509.       3509.       3510.       3510.       3510.       3511.       3511.    
        3511.       3509.       3509.       3509.       3509.       3509.       3509.       3511.       3511.       3511.    
        3513.       3513.       3513.       3513.       3513.       3513.       3516.       3516.       3516.       3517.    
        3517.       3517.       3517.       3517.       3517.       3516.       3516.       3516.       3515.       3515.    
        3515.       3515.       3515.       3515.       3515.       3515.       3515.       3513.       3513.       3513.    
        3513.       3513.       3513.       3515.       3515.       3515.       3517.       3517.       3517.       3519.    
        3519.       3519.       3519.       3520.       3520.       3520.       3519.       3519.       3519.       3521.    
        3521.       3521.       3524.       3524.       3524.       3529.       3529.       3529.       3531.       3531.    
        3531.       3533.       3533.       3533.       3534.       3534.       3534.       3536.       3536.       3536.    
        3539.       3539.       3539.       3540.       3540.       3539.       3539.       3539.       3541.       3546.    
        3548.       3548.       3550.       3552.       3553.       3551.       3551.       3550.       3550.       3551.    
        3550.       3550.       3550.       3550.       3552.       3555.    
  47    3524.       3518.       3511.       3503.       3503.       3500.       3503.       3507.       3502.       3502.    
        3496.       3495.       3495.       3495.       3497.       3497.       3496.       3496.       3496.       3495.    
        3495.       3495.       3495.       3497.       3497.       3497.       3497.       3497.       3497.       3497.    
        3497.       3497.       3499.       3499.       3499.       3500.       3500.       3500.       3500.       3500.    
        3500.       3499.       3499.       3499.       3499.       3499.       3499.       3501.       3501.       3501.    
        3502.       3502.       3502.       3503.       3503.       3503.       3504.       3504.       3504.       3505.    
        3505.       3505.       3506.       3506.       3506.       3507.       3507.       3507.       3507.       3507.    
        3507.       3508.       3508.       3508.       3508.       3508.       3508.       3508.       3509.       3509.    
        3509.       3511.       3511.       3511.       3513.       3513.       3513.       3514.       3514.       3514.    
        3514.       3514.       3514.       3513.       3513.       3513.       3515.       3515.       3515.       3517.    
        3517.       3517.       3519.       3519.       3519.       3519.       3519.       3519.       3517.       3517.    
        3517.       3517.       3517.       3517.       3516.       3516.       3516.       3516.       3516.       3516.    
        3517.       3517.       3517.       3519.       3519.       3519.       3521.       3521.       3521.       3523.    
        3523.       3523.       3523.       3523.       3523.       3523.       3523.       3523.       3523.       3524.    
        3524.       3524.       3526.       3526.       3526.       3531.       3531.       3531.       3533.       3533.    
        3533.       3533.       3533.       3533.       3535.       3535.       3535.       3538.       3538.       3538.    
        3538.       3538.       3538.       3538.       3538.       3539.       3539.       3541.       3543.       3544.    
        3547.       3547.       3550.       3552.       3554.       3551.       3551.       3549.       3548.       3549.    
        3549.       3550.       3550.       3550.       3550.       3551.    
  48    3524.       3518.       3511.       3503.       3503.       3500.       3503.       3507.       3502.       3502.    
        3496.       3495.       3495.       3495.       3497.       3497.       3496.       3496.       3496.       3495.    
        3495.       3495.       3495.       3497.       3497.       3497.       3497.       3497.       3497.       3497.    
        3497.       3497.       3499.       3499.       3499.       3500.       3500.       3500.       3500.       3500.    
        3500.       3499.       3499.       3499.       3499.       3499.       3499.       3501.       3501.       3501.    
        3502.       3502.       3502.       3503.       3503.       3503.       3504.       3504.       3504.       3505.    
        3505.       3505.       3506.       3506.       3506.       3507.       3507.       3507.       3507.       3507.    
        3507.       3508.       3508.       3508.       3508.       3508.       3508.       3508.       3509.       3509.    
        3509.       3511.       3511.       3511.       3513.       3513.       3513.       3514.       3514.       3514.    
        3514.       3514.       3514.       3513.       3513.       3513.       3515.       3515.       3515.       3517.    
        3517.       3517.       3519.       3519.       3519.       3519.       3519.       3519.       3517.       3517.    
        3517.       3517.       3517.       3517.       3516.       3516.       3516.       3516.       3516.       3516.    
        3517.       3517.       3517.       3519.       3519.       3519.       3521.       3521.       3521.       3523.    
        3523.       3523.       3523.       3523.       3523.       3523.       3523.       3523.       3523.       3524.    
        3524.       3524.       3526.       3526.       3526.       3531.       3531.       3531.       3533.       3533.    
        3533.       3533.       3533.       3533.       3535.       3535.       3535.       3538.       3538.       3538.    
        3538.       3538.       3538.       3538.       3538.       3539.       3539.       3541.       3543.       3544.    
        3547.       3547.       3550.       3552.       3554.       3551.       3551.       3549.       3548.       3549.    
        3549.       3550.       3550.       3550.       3550.       3551.    
  49    3524.       3518.       3511.       3503.       3503.       3500.       3503.       3507.       3502.       3502.    
        3496.       3495.       3495.       3495.       3497.       3497.       3496.       3496.       3496.       3495.    
        3495.       3495.       3495.       3497.       3497.       3497.       3497.       3497.       3497.       3497.    
        3497.       3497.       3499.       3499.       3499.       3500.       3500.       3500.       3500.       3500.    
        3500.       3499.       3499.       3499.       3499.       3499.       3499.       3501.       3501.       3501.    
        3502.       3502.       3502.       3503.       3503.       3503.       3504.       3504.       3504.       3505.    
        3505.       3505.       3506.       3506.       3506.       3507.       3507.       3507.       3507.       3507.    
        3507.       3508.       3508.       3508.       3508.       3508.       3508.       3508.       3509.       3509.    
        3509.       3511.       3511.       3511.       3513.       3513.       3513.       3514.       3514.       3514.    
        3514.       3514.       3514.       3513.       3513.       3513.       3515.       3515.       3515.       3517.    
        3517.       3517.       3519.       3519.       3519.       3519.       3519.       3519.       3517.       3517.    
        3517.       3517.       3517.       3517.       3516.       3516.       3516.       3516.       3516.       3516.    
        3517.       3517.       3517.       3519.       3519.       3519.       3521.       3521.       3521.       3523.    
        3523.       3523.       3523.       3523.       3523.       3523.       3523.       3523.       3523.       3524.    
        3524.       3524.       3526.       3526.       3526.       3531.       3531.       3531.       3533.       3533.    
        3533.       3533.       3533.       3533.       3535.       3535.       3535.       3538.       3538.       3538.    
        3538.       3538.       3538.       3538.       3538.       3539.       3539.       3541.       3543.       3544.    
        3547.       3547.       3550.       3552.       3554.       3551.       3551.       3549.       3548.       3549.    
        3549.       3550.       3550.       3550.       3550.       3551.    
  50    3525.       3520.       3515.       3507.       3507.       3502.       3501.       3503.       3495.       3495.    
        3492.       3496.       3492.       3492.       3494.       3494.       3494.       3494.       3494.       3494.    
        3494.       3494.       3494.       3496.       3496.       3496.       3495.       3495.       3495.       3495.    
        3495.       3495.       3499.       3499.       3499.       3503.       3503.       3503.       3502.       3502.    
        3502.       3502.       3502.       3502.       3502.       3502.       3502.       3504.       3504.       3504.    
        3505.       3505.       3505.       3506.       3506.       3506.       3506.       3506.       3506.       3507.    
        3507.       3507.       3508.       3508.       3508.       3509.       3509.       3509.       3510.       3510.    
        3510.       3511.       3511.       3511.       3511.       3512.       3512.       3512.       3513.       3513.    
        3513.       3515.       3515.       3515.       3515.       3515.       3515.       3515.       3515.       3515.    
        3515.       3515.       3515.       3515.       3515.       3515.       3515.       3515.       3515.       3515.    
        3515.       3515.       3516.       3516.       3516.       3516.       3516.       3516.       3519.       3519.    
        3519.       3521.       3521.       3521.       3520.       3520.       3520.       3520.       3520.       3520.    
        3522.       3522.       3522.       3522.       3522.       3522.       3521.       3521.       3521.       3522.    
        3522.       3522.       3522.       3522.       3522.       3522.       3523.       3523.       3523.       3524.    
        3524.       3524.       3527.       3527.       3527.       3533.       3533.       3533.       3534.       3534.    
        3534.       3534.       3534.       3534.       3535.       3535.       3535.       3536.       3536.       3536.    
        3538.       3538.       3538.       3538.       3538.       3539.       3539.       3540.       3541.       3541.    
        3543.       3543.       3545.       3548.       3549.       3549.       3549.       3547.       3546.       3547.    
        3547.       3549.       3549.       3548.       3550.       3551.    
  51    3525.       3520.       3515.       3507.       3507.       3502.       3501.       3503.       3495.       3495.    
        3492.       3496.       3492.       3492.       3494.       3494.       3494.       3494.       3494.       3494.    
        3494.       3494.       3494.       3496.       3496.       3496.       3495.       3495.       3495.       3495.    
        3495.       3495.       3499.       3499.       3499.       3503.       3503.       3503.       3502.       3502.    
        3502.       3502.       3502.       3502.       3502.       3502.       3502.       3504.       3504.       3504.    
        3505.       3505.       3505.       3506.       3506.       3506.       3506.       3506.       3506.       3507.    
        3507.       3507.       3508.       3508.       3508.       3509.       3509.       3509.       3510.       3510.    
        3510.       3511.       3511.       3511.       3511.       3512.       3512.       3512.       3513.       3513.    
        3513.       3515.       3515.       3515.       3515.       3515.       3515.       3515.       3515.       3515.    
        3515.       3515.       3515.       3515.       3515.       3515.       3515.       3515.       3515.       3515.    
        3515.       3515.       3516.       3516.       3516.       3516.       3516.       3516.       3519.       3519.    
        3519.       3521.       3521.       3521.       3520.       3520.       3520.       3520.       3520.       3520.    
        3522.       3522.       3522.       3522.       3522.       3522.       3521.       3521.       3521.       3522.    
        3522.       3522.       3522.       3522.       3522.       3522.       3523.       3523.       3523.       3524.    
        3524.       3524.       3527.       3527.       3527.       3533.       3533.       3533.       3534.       3534.    
        3534.       3534.       3534.       3534.       3535.       3535.       3535.       3536.       3536.       3536.    
        3538.       3538.       3538.       3538.       3538.       3539.       3539.       3540.       3541.       3541.    
        3543.       3543.       3545.       3548.       3549.       3549.       3549.       3547.       3546.       3547.    
        3547.       3549.       3549.       3548.       3550.       3551.    
  52    3525.       3520.       3515.       3507.       3507.       3502.       3501.       3503.       3495.       3495.    
        3492.       3496.       3492.       3492.       3494.       3494.       3494.       3494.       3494.       3494.    
        3494.       3494.       3494.       3496.       3496.       3496.       3495.       3495.       3495.       3495.    
        3495.       3495.       3499.       3499.       3499.       3503.       3503.       3503.       3502.       3502.    
        3502.       3502.       3502.       3502.       3502.       3502.       3502.       3504.       3504.       3504.    
        3505.       3505.       3505.       3506.       3506.       3506.       3506.       3506.       3506.       3507.    
        3507.       3507.       3508.       3508.       3508.       3509.       3509.       3509.       3510.       3510.    
        3510.       3511.       3511.       3511.       3511.       3512.       3512.       3512.       3513.       3513.    
        3513.       3515.       3515.       3515.       3515.       3515.       3515.       3515.       3515.       3515.    
        3515.       3515.       3515.       3515.       3515.       3515.       3515.       3515.       3515.       3515.    
        3515.       3515.       3516.       3516.       3516.       3516.       3516.       3516.       3519.       3519.    
        3519.       3521.       3521.       3521.       3520.       3520.       3520.       3520.       3520.       3520.    
        3522.       3522.       3522.       3522.       3522.       3522.       3521.       3521.       3521.       3522.    
        3522.       3522.       3522.       3522.       3522.       3522.       3523.       3523.       3523.       3524.    
        3524.       3524.       3527.       3527.       3527.       3533.       3533.       3533.       3534.       3534.    
        3534.       3534.       3534.       3534.       3535.       3535.       3535.       3536.       3536.       3536.    
        3538.       3538.       3538.       3538.       3538.       3539.       3539.       3540.       3541.       3541.    
        3543.       3543.       3545.       3548.       3549.       3549.       3549.       3547.       3546.       3547.    
        3547.       3549.       3549.       3548.       3550.       3551.    
  53    3527.       3520.       3517.       3511.       3511.       3507.       3504.       3499.       3494.       3494.    
        3491.       3493.       3490.       3493.       3494.       3494.       3495.       3495.       3495.       3493.    
        3493.       3493.       3493.       3496.       3496.       3496.       3498.       3498.       3498.       3498.    
        3498.       3498.       3500.       3500.       3500.       3501.       3501.       3501.       3500.       3500.    
        3500.       3499.       3499.       3499.       3501.       3501.       3501.       3504.       3504.       3504.    
        3505.       3505.       3505.       3506.       3506.       3506.       3507.       3507.       3507.       3508.    
        3508.       3508.       3509.       3509.       3509.       3509.       3509.       3509.       3511.       3511.    
        3511.       3512.       3512.       3512.       3512.       3513.       3513.       3513.       3514.       3514.    
        3514.       3515.       3515.       3515.       3515.       3515.       3515.       3515.       3515.       3515.    
        3513.       3513.       3513.       3514.       3514.       3514.       3514.       3514.       3514.       3516.    
        3516.       3516.       3520.       3520.       3520.       3520.       3520.       3520.       3520.       3520.    
        3520.       3520.       3520.       3520.       3519.       3519.       3519.       3519.       3519.       3519.    
        3520.       3520.       3520.       3522.       3522.       3522.       3520.       3520.       3520.       3521.    
        3521.       3521.       3521.       3523.       3523.       3523.       3528.       3528.       3528.       3530.    
        3530.       3530.       3531.       3531.       3531.       3533.       3533.       3533.       3536.       3536.    
        3536.       3535.       3535.       3535.       3534.       3534.       3534.       3536.       3536.       3536.    
        3537.       3537.       3537.       3537.       3537.       3537.       3537.       3537.       3538.       3539.    
        3542.       3542.       3544.       3547.       3550.       3548.       3548.       3546.       3546.       3547.    
        3549.       3551.       3551.       3552.       3553.       3554.    
  54    3527.       3520.       3517.       3511.       3511.       3507.       3504.       3499.       3494.       3494.    
        3491.       3493.       3490.       3493.       3494.       3494.       3495.       3495.       3495.       3493.    
        3493.       3493.       3493.       3496.       3496.       3496.       3498.       3498.       3498.       3498.    
        3498.       3498.       3500.       3500.       3500.       3501.       3501.       3501.       3500.       3500.    
        3500.       3499.       3499.       3499.       3501.       3501.       3501.       3504.       3504.       3504.    
        3505.       3505.       3505.       3506.       3506.       3506.       3507.       3507.       3507.       3508.    
        3508.       3508.       3509.       3509.       3509.       3509.       3509.       3509.       3511.       3511.    
        3511.       3512.       3512.       3512.       3512.       3513.       3513.       3513.       3514.       3514.    
        3514.       3515.       3515.       3515.       3515.       3515.       3515.       3515.       3515.       3515.    
        3513.       3513.       3513.       3514.       3514.       3514.       3514.       3514.       3514.       3516.    
        3516.       3516.       3520.       3520.       3520.       3520.       3520.       3520.       3520.       3520.    
        3520.       3520.       3520.       3520.       3519.       3519.       3519.       3519.       3519.       3519.    
        3520.       3520.       3520.       3522.       3522.       3522.       3520.       3520.       3520.       3521.    
        3521.       3521.       3521.       3523.       3523.       3523.       3528.       3528.       3528.       3530.    
        3530.       3530.       3531.       3531.       3531.       3533.       3533.       3533.       3536.       3536.    
        3536.       3535.       3535.       3535.       3534.       3534.       3534.       3536.       3536.       3536.    
        3537.       3537.       3537.       3537.       3537.       3537.       3537.       3537.       3538.       3539.    
        3542.       3542.       3544.       3547.       3550.       3548.       3548.       3546.       3546.       3547.    
        3549.       3551.       3551.       3552.       3553.       3554.    
  55    3527.       3520.       3517.       3511.       3511.       3507.       3504.       3499.       3494.       3494.    
        3491.       3493.       3490.       3493.       3494.       3494.       3495.       3495.       3495.       3493.    
        3493.       3493.       3493.       3496.       3496.       3496.       3498.       3498.       3498.       3498.    
        3498.       3498.       3500.       3500.       3500.       3501.       3501.       3501.       3500.       3500.    
        3500.       3499.       3499.       3499.       3501.       3501.       3501.       3504.       3504.       3504.    
        3505.       3505.       3505.       3506.       3506.       3506.       3507.       3507.       3507.       3508.    
        3508.       3508.       3509.       3509.       3509.       3509.       3509.       3509.       3511.       3511.    
        3511.       3512.       3512.       3512.       3512.       3513.       3513.       3513.       3514.       3514.    
        3514.       3515.       3515.       3515.       3515.       3515.       3515.       3515.       3515.       3515.    
        3513.       3513.       3513.       3514.       3514.       3514.       3514.       3514.       3514.       3516.    
        3516.       3516.       3520.       3520.       3520.       3520.       3520.       3520.       3520.       3520.    
        3520.       3520.       3520.       3520.       3519.       3519.       3519.       3519.       3519.       3519.    
        3520.       3520.       3520.       3522.       3522.       3522.       3520.       3520.       3520.       3520.    
        3521.       3521.       3521.       3523.       3523.       3523.       3528.       3528.       3528.       3530.    
        3530.       3530.       3531.       3531.       3531.       3533.       3533.       3533.       3536.       3536.    
        3536.       3535.       3535.       3535.       3534.       3534.       3534.       3536.       3536.       3536.    
        3537.       3537.       3537.       3537.       3537.       3537.       3537.       3537.       3538.       3539.    
        3542.       3542.       3544.       3547.       3550.       3548.       3548.       3546.       3546.       3547.    
        3549.       3551.       3551.       3552.       3553.       3554.    
  56    3527.       3522.       3518.       3514.       3514.       3511.       3510.       3507.       3501.       3501.    
        3496.       3493.       3490.       3493.       3497.       3497.       3495.       3495.       3495.       3495.    
        3495.       3495.       3495.       3495.       3495.       3495.       3495.       3495.       3495.       3498.    
        3498.       3498.       3501.       3501.       3501.       3501.       3501.       3501.       3500.       3500.    
        3500.       3500.       3500.       3500.       3501.       3501.       3501.       3503.       3503.       3503.    
        3504.       3504.       3504.       3504.       3504.       3504.       3506.       3506.       3506.       3509.    
        3509.       3509.       3509.       3509.       3509.       3509.       3509.       3509.       3509.       3509.    
        3509.       3509.       3509.       3509.       3509.       3510.       3510.       3510.       3512.       3512.    
        3512.       3513.       3513.       3513.       3516.       3516.       3516.       3516.       3516.       3516.    
        3518.       3518.       3518.       3517.       3517.       3517.       3515.       3515.       3515.       3515.    
        3515.       3515.       3519.       3519.       3519.       3521.       3521.       3521.       3521.       3521.    
        3521.       3519.       3519.       3519.       3518.       3518.       3518.       3519.       3519.       3519.    
        3521.       3521.       3521.       3524.       3524.       3524.       3525.       3525.       3525.       3527.    
        3527.       3527.       3527.       3529.       3529.       3529.       3531.       3531.       3531.       3531.    
        3531.       3531.       3532.       3532.       3532.       3532.       3532.       3532.       3534.       3534.    
        3534.       3536.       3536.       3536.       3538.       3538.       3538.       3538.       3538.       3538.    
        3537.       3537.       3537.       3536.       3536.       3537.       3537.       3535.       3537.       3543.    
        3547.       3547.       3549.       3550.       3553.       3553.       3553.       3550.       3550.       3550.    
        3550.       3551.       3551.       3553.       3555.       3559.    
  57    3527.       3522.       3518.       3514.       3514.       3511.       3510.       3507.       3501.       3501.    
        3496.       3493.       3490.       3493.       3497.       3497.       3495.       3495.       3495.       3495.    
        3495.       3495.       3495.       3495.       3495.       3495.       3495.       3495.       3495.       3498.    
        3498.       3498.       3501.       3501.       3501.       3501.       3501.       3501.       3500.       3500.    
        3500.       3500.       3500.       3500.       3501.       3501.       3501.       3503.       3503.       3503.    
        3504.       3504.       3504.       3504.       3504.       3504.       3506.       3506.       3506.       3509.    
        3509.       3509.       3509.       3509.       3509.       3509.       3509.       3509.       3509.       3509.    
        3509.       3509.       3509.       3509.       3509.       3510.       3510.       3510.       3512.       3512.    
        3512.       3513.       3513.       3513.       3516.       3516.       3516.       3516.       3516.       3516.    
        3518.       3518.       3518.       3517.       3517.       3517.       3515.       3515.       3515.       3515.    
        3515.       3515.       3519.       3519.       3519.       3521.       3521.       3521.       3521.       3521.    
        3521.       3519.       3519.       3519.       3518.       3518.       3518.       3519.       3519.       3519.    
        3521.       3521.       3521.       3524.       3524.       3524.       3525.       3525.       3525.       3527.    
        3527.       3527.       3527.       3529.       3529.       3529.       3531.       3531.       3531.       3531.    
        3531.       3531.       3532.       3532.       3532.       3532.       3532.       3532.       3534.       3534.    
        3534.       3536.       3536.       3536.       3538.       3538.       3538.       3538.       3538.       3538.    
        3537.       3537.       3537.       3536.       3536.       3537.       3537.       3535.       3537.       3543.    
        3547.       3547.       3549.       3550.       3553.       3553.       3553.       3550.       3550.       3550.    
        3550.       3551.       3551.       3553.       3555.       3559.    
  58    3527.       3522.       3518.       3514.       3514.       3511.       3510.       3507.       3501.       3501.    
        3496.       3493.       3490.       3493.       3497.       3497.       3495.       3495.       3495.       3495.    
        3495.       3495.       3495.       3495.       3495.       3495.       3495.       3495.       3495.       3498.    
        3498.       3498.       3501.       3501.       3501.       3501.       3501.       3501.       3500.       3500.    
        3500.       3500.       3500.       3500.       3501.       3501.       3501.       3503.       3503.       3503.    
        3504.       3504.       3504.       3504.       3504.       3504.       3506.       3506.       3506.       3509.    
        3509.       3509.       3509.       3509.       3509.       3509.       3509.       3509.       3509.       3509.    
        3509.       3509.       3509.       3509.       3509.       3510.       3510.       3510.       3512.       3512.    
        3512.       3513.       3513.       3513.       3516.       3516.       3516.       3516.       3516.       3516.    
        3518.       3518.       3518.       3517.       3517.       3517.       3515.       3515.       3515.       3515.    
        3515.       3515.       3519.       3519.       3519.       3521.       3521.       3521.       3521.       3521.    
        3521.       3519.       3519.       3519.       3518.       3518.       3518.       3519.       3519.       3519.    
        3521.       3521.       3521.       3524.       3524.       3524.       3525.       3525.       3525.       3527.    
        3527.       3527.       3527.       3529.       3529.       3529.       3531.       3531.       3531.       3531.    
        3531.       3531.       3532.       3532.       3532.       3532.       3532.       3532.       3534.       3534.    
        3534.       3536.       3536.       3536.       3538.       3538.       3538.       3538.       3538.       3538.    
        3537.       3537.       3537.       3536.       3536.       3537.       3537.       3535.       3537.       3543.    
        3547.       3547.       3549.       3550.       3553.       3553.       3553.       3550.       3550.       3550.    
        3550.       3551.       3551.       3553.       3555.       3559.    
  59    3529.       3522.       3518.       3520.       3520.       3519.       3517.       3511.       3506.       3506.    
        3503.       3500.       3494.       3494.       3500.       3500.       3498.       3498.       3498.       3498.    
        3498.       3498.       3498.       3498.       3498.       3498.       3496.       3496.       3496.       3497.    
        3497.       3497.       3499.       3499.       3499.       3498.       3498.       3498.       3498.       3498.    
        3498.       3498.       3498.       3498.       3499.       3499.       3499.       3501.       3501.       3501.    
        3502.       3502.       3502.       3501.       3501.       3501.       3503.       3503.       3503.       3506.    
        3506.       3506.       3507.       3507.       3507.       3508.       3508.       3508.       3510.       3510.    
        3510.       3511.       3511.       3511.       3511.       3510.       3510.       3510.       3510.       3510.    
        3510.       3511.       3511.       3511.       3515.       3515.       3515.       3517.       3517.       3517.    
        3519.       3519.       3519.       3521.       3521.       3521.       3520.       3520.       3520.       3519.    
        3519.       3519.       3520.       3520.       3520.       3521.       3521.       3521.       3521.       3521.    
        3521.       3519.       3519.       3519.       3520.       3520.       3520.       3521.       3521.       3521.    
        3524.       3524.       3524.       3526.       3526.       3526.       3529.       3529.       3529.       3532.    
        3532.       3532.       3532.       3535.       3535.       3535.       3536.       3536.       3536.       3536.    
        3536.       3536.       3536.       3536.       3536.       3536.       3536.       3536.       3536.       3536.    
        3536.       3537.       3537.       3537.       3538.       3538.       3538.       3537.       3537.       3537.    
        3538.       3538.       3538.       3536.       3536.       3538.       3538.       3540.       3542.       3548.    
        3550.       3550.       3550.       3551.       3553.       3554.       3554.       3551.       3550.       3551.    
        3553.       3555.       3555.       3558.       3563.       3569.    
  60    3529.       3522.       3518.       3520.       3520.       3519.       3517.       3511.       3506.       3506.    
        3503.       3500.       3494.       3494.       3500.       3500.       3498.       3498.       3498.       3498.    
        3498.       3498.       3498.       3498.       3498.       3498.       3496.       3496.       3496.       3497.    
        3497.       3497.       3499.       3499.       3499.       3498.       3498.       3498.       3498.       3498.    
        3498.       3498.       3498.       3498.       3499.       3499.       3499.       3501.       3501.       3501.    
        3502.       3502.       3502.       3501.       3501.       3501.       3503.       3503.       3503.       3506.    
        3506.       3506.       3507.       3507.       3507.       3508.       3508.       3508.       3510.       3510.    
        3510.       3511.       3511.       3511.       3511.       3510.       3510.       3510.       3510.       3510.    
        3510.       3511.       3511.       3511.       3515.       3515.       3515.       3517.       3517.       3517.    
        3519.       3519.       3519.       3521.       3521.       3521.       3520.       3520.       3520.       3519.    
        3519.       3519.       3520.       3520.       3520.       3521.       3521.       3521.       3521.       3521.    
        3521.       3519.       3519.       3519.       3520.       3520.       3520.       3521.       3521.       3521.    
        3524.       3524.       3524.       3526.       3526.       3526.       3529.       3529.       3529.       3532.    
        3532.       3532.       3532.       3535.       3535.       3535.       3536.       3536.       3536.       3536.    
        3536.       3536.       3536.       3536.       3536.       3536.       3536.       3536.       3536.       3536.    
        3536.       3537.       3537.       3537.       3538.       3538.       3538.       3537.       3537.       3537.    
        3538.       3538.       3538.       3536.       3536.       3538.       3538.       3540.       3542.       3548.    
        3550.       3550.       3550.       3551.       3553.       3554.       3554.       3551.       3550.       3551.    
        3553.       3555.       3555.       3558.       3563.       3569.    
  61    3529.       3522.       3518.       3520.       3520.       3519.       3517.       3511.       3506.       3506.    
        3503.       3500.       3494.       3494.       3500.       3500.       3498.       3498.       3498.       3498.    
        3498.       3498.       3498.       3498.       3498.       3498.       3496.       3496.       3496.       3497.    
        3497.       3497.       3499.       3499.       3499.       3498.       3498.       3498.       3498.       3498.    
        3498.       3498.       3498.       3498.       3499.       3499.       3499.       3501.       3501.       3501.    
        3502.       3502.       3502.       3501.       3501.       3501.       3503.       3503.       3503.       3506.    
        3506.       3506.       3507.       3507.       3507.       3508.       3508.       3508.       3510.       3510.    
        3510.       3511.       3511.       3511.       3511.       3510.       3510.       3510.       3510.       3510.    
        3510.       3511.       3511.       3511.       3515.       3515.       3515.       3517.       3517.       3517.    
        3519.       3519.       3519.       3521.       3521.       3521.       3520.       3520.       3520.       3519.    
        3519.       3519.       3520.       3520.       3520.       3521.       3521.       3521.       3521.       3521.    
        3521.       3519.       3519.       3519.       3520.       3520.       3520.       3521.       3521.       3521.    
        3524.       3524.       3524.       3526.       3526.       3526.       3529.       3529.       3529.       3532.    
        3532.       3532.       3532.       3535.       3535.       3535.       3536.       3536.       3536.       3536.    
        3536.       3536.       3536.       3536.       3536.       3536.       3536.       3536.       3536.       3536.    
        3536.       3537.       3537.       3537.       3538.       3538.       3538.       3537.       3537.       3537.    
        3538.       3538.       3538.       3536.       3536.       3538.       3538.       3540.       3542.       3548.    
        3550.       3550.       3550.       3551.       3553.       3554.       3554.       3551.       3550.       3551.    
        3553.       3555.       3555.       3558.       3563.       3569.    
  62    3533.       3528.       3523.       3522.       3522.       3523.       3520.       3515.       3509.       3509.    
        3505.       3499.       3496.       3494.       3500.       3500.       3501.       3501.       3501.       3499.    
        3499.       3499.       3499.       3500.       3500.       3500.       3499.       3499.       3499.       3499.    
        3499.       3499.       3500.       3500.       3500.       3500.       3500.       3500.       3500.       3500.    
        3500.       3503.       3503.       3503.       3505.       3505.       3505.       3505.       3505.       3505.    
        3504.       3504.       3504.       3505.       3505.       3505.       3504.       3504.       3504.       3505.    
        3505.       3505.       3505.       3505.       3505.       3507.       3507.       3507.       3508.       3508.    
        3508.       3512.       3512.       3512.       3512.       3514.       3514.       3514.       3514.       3514.    
        3514.       3513.       3513.       3513.       3514.       3514.       3514.       3516.       3516.       3516.    
        3519.       3519.       3519.       3519.       3519.       3519.       3520.       3520.       3520.       3522.    
        3522.       3522.       3522.       3522.       3522.       3522.       3522.       3522.       3521.       3521.    
        3521.       3520.       3520.       3520.       3520.       3520.       3520.       3522.       3522.       3522.    
        3523.       3523.       3523.       3525.       3525.       3525.       3528.       3528.       3528.       3534.    
        3534.       3534.       3534.       3538.       3538.       3538.       3539.       3539.       3539.       3540.    
        3540.       3540.       3538.       3538.       3538.       3537.       3537.       3537.       3537.       3537.    
        3537.       3536.       3536.       3536.       3536.       3536.       3536.       3537.       3537.       3537.    
        3538.       3538.       3538.       3538.       3538.       3542.       3542.       3543.       3546.       3550.    
        3551.       3551.       3551.       3552.       3555.       3558.       3558.       3556.       3556.       3558.    
        3560.       3561.       3561.       3563.       3568.       3571.    
  63    3533.       3528.       3523.       3522.       3522.       3523.       3520.       3515.       3509.       3509.    
        3505.       3499.       3496.       3494.       3500.       3500.       3501.       3501.       3501.       3499.    
        3499.       3499.       3499.       3500.       3500.       3500.       3499.       3499.       3499.       3499.    
        3499.       3499.       3500.       3500.       3500.       3500.       3500.       3500.       3500.       3500.    
        3500.       3503.       3503.       3503.       3505.       3505.       3505.       3505.       3505.       3505.    
        3504.       3504.       3504.       3505.       3505.       3505.       3504.       3504.       3504.       3505.    
        3505.       3505.       3505.       3505.       3505.       3507.       3507.       3507.       3508.       3508.    
        3508.       3512.       3512.       3512.       3512.       3514.       3514.       3514.       3514.       3514.    
        3514.       3513.       3513.       3513.       3514.       3514.       3514.       3516.       3516.       3516.    
        3519.       3519.       3519.       3519.       3519.       3519.       3520.       3520.       3520.       3522.    
        3522.       3522.       3522.       3522.       3522.       3522.       3522.       3522.       3521.       3521.    
        3521.       3520.       3520.       3520.       3520.       3520.       3520.       3522.       3522.       3522.    
        3523.       3523.       3523.       3525.       3525.       3525.       3528.       3528.       3528.       3534.    
        3534.       3534.       3534.       3538.       3538.       3538.       3539.       3539.       3539.       3540.    
        3540.       3540.       3538.       3538.       3538.       3537.       3537.       3537.       3537.       3537.    
        3537.       3536.       3536.       3536.       3536.       3536.       3536.       3537.       3537.       3537.    
        3538.       3538.       3538.       3538.       3538.       3542.       3542.       3543.       3546.       3550.    
        3551.       3551.       3551.       3552.       3555.       3558.       3558.       3556.       3556.       3558.    
        3560.       3561.       3561.       3563.       3568.       3571.    
  64    3533.       3528.       3523.       3522.       3522.       3523.       3520.       3515.       3509.       3509.    
        3505.       3499.       3496.       3494.       3500.       3500.       3501.       3501.       3501.       3499.    
        3499.       3499.       3499.       3500.       3500.       3500.       3499.       3499.       3499.       3499.    
        3499.       3499.       3500.       3500.       3500.       3500.       3500.       3500.       3500.       3500.    
        3500.       3503.       3503.       3503.       3505.       3505.       3505.       3505.       3505.       3505.    
        3504.       3504.       3504.       3505.       3505.       3505.       3504.       3504.       3504.       3505.    
        3505.       3505.       3505.       3505.       3505.       3507.       3507.       3507.       3508.       3508.    
        3508.       3512.       3512.       3512.       3512.       3514.       3514.       3514.       3514.       3514.    
        3514.       3513.       3513.       3513.       3514.       3514.       3514.       3516.       3516.       3516.    
        3519.       3519.       3519.       3519.       3519.       3519.       3520.       3520.       3520.       3522.    
        3522.       3522.       3522.       3522.       3522.       3522.       3522.       3522.       3521.       3521.    
        3521.       3520.       3520.       3520.       3520.       3520.       3520.       3522.       3522.       3522.    
        3523.       3523.       3523.       3525.       3525.       3525.       3528.       3528.       3528.       3534.    
        3534.       3534.       3534.       3538.       3538.       3538.       3539.       3539.       3539.       3540.    
        3540.       3540.       3538.       3538.       3538.       3537.       3537.       3537.       3537.       3537.    
        3537.       3536.       3536.       3536.       3536.       3536.       3536.       3537.       3537.       3537.    
        3538.       3538.       3538.       3538.       3538.       3542.       3542.       3543.       3546.       3550.    
        3551.       3551.       3551.       3552.       3555.       3558.       3558.       3556.       3556.       3558.    
        3560.       3561.       3561.       3563.       3568.       3571.    
  65    3536.       3533.       3531.       3528.       3528.       3526.       3523.       3517.       3512.       3512.    
        3507.       3497.       3493.       3493.       3498.       3498.       3500.       3500.       3500.       3500.    
        3500.       3500.       3500.       3495.       3495.       3495.       3495.       3495.       3495.       3498.    
        3498.       3498.       3500.       3500.       3500.       3501.       3501.       3501.       3504.       3504.    
        3504.       3509.       3509.       3509.       3510.       3510.       3510.       3508.       3508.       3508.    
        3506.       3506.       3506.       3506.       3506.       3506.       3507.       3507.       3507.       3509.    
        3509.       3509.       3511.       3511.       3511.       3513.       3513.       3513.       3515.       3515.    
        3515.       3515.       3515.       3515.       3515.       3514.       3514.       3514.       3513.       3513.    
        3513.       3512.       3512.       3512.       3513.       3513.       3513.       3516.       3516.       3516.    
        3518.       3518.       3518.       3521.       3521.       3521.       3523.       3523.       3523.       3524.    
        3524.       3524.       3522.       3522.       3522.       3521.       3521.       3521.       3521.       3521.    
        3521.       3521.       3521.       3521.       3522.       3522.       3522.       3523.       3523.       3523.    
        3523.       3523.       3523.       3524.       3524.       3524.       3526.       3526.       3526.       3530.    
        3530.       3530.       3530.       3533.       3533.       3533.       3535.       3535.       3535.       3536.    
        3536.       3536.       3536.       3536.       3536.       3537.       3537.       3537.       3537.       3537.    
        3537.       3538.       3538.       3538.       3539.       3539.       3539.       3540.       3540.       3540.    
        3540.       3540.       3540.       3540.       3540.       3542.       3542.       3546.       3550.       3555.    
        3557.       3557.       3557.       3555.       3560.       3566.       3566.       3567.       3566.       3566.    
        3566.       3565.       3565.       3566.       3569.       3570.    
  66    3536.       3533.       3531.       3528.       3528.       3526.       3523.       3517.       3512.       3512.    
        3507.       3497.       3493.       3493.       3498.       3498.       3500.       3500.       3500.       3500.    
        3500.       3500.       3500.       3495.       3495.       3495.       3495.       3495.       3495.       3498.    
        3498.       3498.       3500.       3500.       3500.       3501.       3501.       3501.       3504.       3504.    
        3504.       3509.       3509.       3509.       3510.       3510.       3510.       3508.       3508.       3508.    
        3506.       3506.       3506.       3506.       3506.       3506.       3507.       3507.       3507.       3509.    
        3509.       3509.       3511.       3511.       3511.       3513.       3513.       3513.       3515.       3515.    
        3515.       3515.       3515.       3515.       3515.       3514.       3514.       3514.       3513.       3513.    
        3513.       3512.       3512.       3512.       3513.       3513.       3513.       3516.       3516.       3516.    
        3518.       3518.       3518.       3521.       3521.       3521.       3523.       3523.       3523.       3524.    
        3524.       3524.       3522.       3522.       3522.       3521.       3521.       3521.       3521.       3521.    
        3521.       3521.       3521.       3521.       3522.       3522.       3522.       3523.       3523.       3523.    
        3523.       3523.       3523.       3524.       3524.       3524.       3526.       3526.       3526.       3530.    
        3530.       3530.       3530.       3533.       3533.       3533.       3535.       3535.       3535.       3536.    
        3536.       3536.       3536.       3536.       3536.       3537.       3537.       3537.       3537.       3537.    
        3537.       3538.       3538.       3538.       3539.       3539.       3539.       3540.       3540.       3540.    
        3540.       3540.       3540.       3540.       3540.       3542.       3542.       3546.       3550.       3555.    
        3557.       3557.       3557.       3555.       3560.       3566.       3566.       3567.       3566.       3566.    
        3566.       3565.       3565.       3566.       3569.       3570.    
  67    3536.       3533.       3531.       3528.       3528.       3526.       3523.       3517.       3512.       3512.    
        3507.       3497.       3493.       3493.       3498.       3498.       3500.       3500.       3500.       3500.    
        3500.       3500.       3500.       3495.       3495.       3495.       3495.       3495.       3495.       3498.    
        3498.       3498.       3500.       3500.       3500.       3501.       3501.       3501.       3504.       3504.    
        3504.       3509.       3509.       3509.       3510.       3510.       3510.       3508.       3508.       3508.    
        3506.       3506.       3506.       3506.       3506.       3506.       3507.       3507.       3507.       3509.    
        3509.       3509.       3511.       3511.       3511.       3513.       3513.       3513.       3515.       3515.    
        3515.       3515.       3515.       3515.       3515.       3514.       3514.       3514.       3513.       3513.    
        3513.       3512.       3512.       3512.       3513.       3513.       3513.       3516.       3516.       3516.    
        3518.       3518.       3518.       3521.       3521.       3521.       3523.       3523.       3523.       3524.    
        3524.       3524.       3522.       3522.       3522.       3521.       3521.       3521.       3521.       3521.    
        3521.       3521.       3521.       3521.       3522.       3522.       3522.       3523.       3523.       3523.    
        3523.       3523.       3523.       3524.       3524.       3524.       3526.       3526.       3526.       3530.    
        3530.       3530.       3530.       3533.       3533.       3533.       3535.       3535.       3535.       3536.    
        3536.       3536.       3536.       3536.       3536.       3537.       3537.       3537.       3537.       3537.    
        3537.       3538.       3538.       3538.       3539.       3539.       3539.       3540.       3540.       3540.    
        3540.       3540.       3540.       3540.       3540.       3542.       3542.       3546.       3550.       3555.    
        3557.       3557.       3557.       3555.       3560.       3566.       3566.       3567.       3566.       3566.    
        3566.       3565.       3565.       3566.       3569.       3570.    
  68    3536.       3537.       3534.       3530.       3530.       3528.       3526.       3520.       3514.       3514.    
        3507.       3498.       3494.       3495.       3497.       3497.       3500.       3500.       3500.       3498.    
        3498.       3498.       3498.       3495.       3495.       3495.       3496.       3496.       3496.       3501.    
        3501.       3501.       3503.       3503.       3503.       3504.       3504.       3504.       3507.       3507.    
        3507.       3509.       3509.       3509.       3511.       3511.       3511.       3510.       3510.       3510.    
        3508.       3508.       3508.       3505.       3505.       3505.       3504.       3504.       3504.       3503.    
        3503.       3503.       3506.       3506.       3506.       3510.       3510.       3510.       3514.       3514.    
        3514.       3517.       3517.       3517.       3517.       3518.       3518.       3518.       3516.       3516.    
        3516.       3516.       3516.       3516.       3517.       3517.       3517.       3517.       3517.       3517.    
        3519.       3519.       3519.       3522.       3522.       3522.       3524.       3524.       3524.       3523.    
        3523.       3523.       3523.       3523.       3523.       3524.       3524.       3524.       3524.       3524.    
        3524.       3524.       3524.       3524.       3525.       3525.       3525.       3526.       3526.       3526.    
        3528.       3528.       3528.       3528.       3528.       3528.       3528.       3528.       3528.       3528.    
        3528.       3528.       3528.       3529.       3529.       3529.       3532.       3532.       3532.       3533.    
        3533.       3533.       3533.       3533.       3533.       3534.       3534.       3534.       3537.       3537.    
        3537.       3537.       3537.       3537.       3538.       3538.       3538.       3540.       3540.       3540.    
        3542.       3542.       3542.       3543.       3543.       3544.       3544.       3546.       3558.       3560.    
        3561.       3561.       3561.       3561.       3561.       3564.       3564.       3569.       3569.       3566.    
        3565.       3564.       3564.       3564.       3568.       3572.    
  69    3536.       3537.       3534.       3530.       3530.       3528.       3526.       3520.       3514.       3514.    
        3507.       3498.       3494.       3495.       3497.       3497.       3500.       3500.       3500.       3498.    
        3498.       3498.       3498.       3495.       3495.       3495.       3496.       3496.       3496.       3501.    
        3501.       3501.       3503.       3503.       3503.       3504.       3504.       3504.       3507.       3507.    
        3507.       3509.       3509.       3509.       3511.       3511.       3511.       3510.       3510.       3510.    
        3508.       3508.       3508.       3505.       3505.       3505.       3504.       3504.       3504.       3503.    
        3503.       3503.       3506.       3506.       3506.       3510.       3510.       3510.       3514.       3514.    
        3514.       3517.       3517.       3517.       3517.       3518.       3518.       3518.       3516.       3516.    
        3516.       3516.       3516.       3516.       3517.       3517.       3517.       3517.       3517.       3517.    
        3519.       3519.       3519.       3522.       3522.       3522.       3524.       3524.       3524.       3523.    
        3523.       3523.       3523.       3523.       3523.       3524.       3524.       3524.       3524.       3524.    
        3524.       3524.       3524.       3524.       3525.       3525.       3525.       3526.       3526.       3526.    
        3528.       3528.       3528.       3528.       3528.       3528.       3528.       3528.       3528.       3528.    
        3528.       3528.       3528.       3529.       3529.       3529.       3532.       3532.       3532.       3533.    
        3533.       3533.       3533.       3533.       3533.       3534.       3534.       3534.       3537.       3537.    
        3537.       3537.       3537.       3537.       3538.       3538.       3538.       3540.       3540.       3540.    
        3542.       3542.       3542.       3543.       3543.       3544.       3544.       3546.       3558.       3560.    
        3561.       3561.       3561.       3561.       3561.       3564.       3564.       3569.       3569.       3566.    
        3565.       3564.       3564.       3564.       3568.       3572.    
  70    3536.       3537.       3534.       3530.       3530.       3528.       3526.       3520.       3514.       3514.    
        3507.       3498.       3494.       3495.       3497.       3497.       3500.       3500.       3500.       3498.    
        3498.       3498.       3498.       3495.       3495.       3495.       3496.       3496.       3496.       3501.    
        3501.       3501.       3503.       3503.       3503.       3504.       3504.       3504.       3507.       3507.    
        3507.       3509.       3509.       3509.       3511.       3511.       3511.       3510.       3510.       3510.    
        3508.       3508.       3508.       3505.       3505.       3505.       3504.       3504.       3504.       3503.    
        3503.       3503.       3506.       3506.       3506.       3510.       3510.       3510.       3514.       3514.    
        3514.       3517.       3517.       3517.       3517.       3518.       3518.       3518.       3516.       3516.    
        3516.       3516.       3516.       3516.       3517.       3517.       3517.       3517.       3517.       3517.    
        3519.       3519.       3519.       3522.       3522.       3522.       3524.       3524.       3524.       3523.    
        3523.       3523.       3523.       3523.       3523.       3524.       3524.       3524.       3524.       3524.    
        3524.       3524.       3524.       3524.       3525.       3525.       3525.       3526.       3526.       3526.    
        3528.       3528.       3528.       3528.       3528.       3528.       3528.       3528.       3528.       3528.    
        3528.       3528.       3528.       3529.       3529.       3529.       3532.       3532.       3532.       3533.    
        3533.       3533.       3533.       3533.       3533.       3534.       3534.       3534.       3537.       3537.    
        3537.       3537.       3537.       3537.       3538.       3538.       3538.       3540.       3540.       3540.    
        3542.       3542.       3542.       3543.       3543.       3544.       3544.       3546.       3558.       3560.    
        3561.       3561.       3561.       3561.       3561.       3564.       3564.       3569.       3569.       3566.    
        3565.       3564.       3564.       3564.       3568.       3572.    
  71    3537.       3537.       3536.       3531.       3531.       3531.       3527.       3524.       3518.       3518.    
        3512.       3501.       3498.       3500.       3500.       3500.       3502.       3502.       3502.       3499.    
        3499.       3499.       3499.       3496.       3496.       3496.       3498.       3498.       3498.       3504.    
        3504.       3504.       3503.       3503.       3503.       3503.       3503.       3503.       3507.       3507.    
        3507.       3506.       3506.       3506.       3506.       3506.       3506.       3508.       3508.       3508.    
        3507.       3507.       3507.       3504.       3504.       3504.       3505.       3505.       3505.       3508.    
        3508.       3508.       3512.       3512.       3512.       3518.       3518.       3518.       3521.       3521.    
        3521.       3522.       3522.       3522.       3522.       3523.       3523.       3523.       3525.       3525.    
        3525.       3526.       3526.       3526.       3527.       3527.       3527.       3527.       3527.       3527.    
        3527.       3527.       3527.       3526.       3526.       3526.       3527.       3527.       3527.       3526.    
        3526.       3526.       3526.       3526.       3526.       3528.       3528.       3528.       3530.       3530.    
        3530.       3532.       3532.       3532.       3532.       3532.       3532.       3532.       3532.       3532.    
        3533.       3533.       3533.       3534.       3534.       3534.       3535.       3535.       3535.       3534.    
        3534.       3534.       3534.       3534.       3534.       3534.       3534.       3534.       3534.       3537.    
        3537.       3537.       3541.       3541.       3541.       3542.       3542.       3542.       3543.       3543.    
        3543.       3543.       3543.       3543.       3544.       3544.       3544.       3545.       3545.       3545.    
        3547.       3547.       3547.       3551.       3551.       3555.       3555.       3557.       3558.       3563.    
        3564.       3564.       3563.       3563.       3563.       3565.       3565.       3570.       3571.       3573.    
        3570.       3569.       3569.       3572.       3579.       3582.    
  72    3537.       3537.       3536.       3531.       3531.       3531.       3527.       3524.       3518.       3518.    
        3512.       3501.       3498.       3500.       3500.       3500.       3502.       3502.       3502.       3499.    
        3499.       3499.       3499.       3496.       3496.       3496.       3498.       3498.       3498.       3504.    
        3504.       3504.       3503.       3503.       3503.       3503.       3503.       3503.       3507.       3507.    
        3507.       3506.       3506.       3506.       3506.       3506.       3506.       3508.       3508.       3508.    
        3507.       3507.       3507.       3504.       3504.       3504.       3505.       3505.       3505.       3508.    
        3508.       3508.       3512.       3512.       3512.       3518.       3518.       3518.       3521.       3521.    
        3521.       3522.       3522.       3522.       3522.       3523.       3523.       3523.       3525.       3525.    
        3525.       3526.       3526.       3526.       3527.       3527.       3527.       3527.       3527.       3527.    
        3527.       3527.       3527.       3526.       3526.       3526.       3527.       3527.       3527.       3526.    
        3526.       3526.       3526.       3526.       3526.       3528.       3528.       3528.       3530.       3530.    
        3530.       3532.       3532.       3532.       3532.       3532.       3532.       3532.       3532.       3532.    
        3533.       3533.       3533.       3534.       3534.       3534.       3535.       3535.       3535.       3534.    
        3534.       3534.       3534.       3534.       3534.       3534.       3534.       3534.       3534.       3537.    
        3537.       3537.       3541.       3541.       3541.       3542.       3542.       3542.       3543.       3543.    
        3543.       3543.       3543.       3543.       3544.       3544.       3544.       3545.       3545.       3545.    
        3547.       3547.       3547.       3551.       3551.       3555.       3555.       3557.       3558.       3563.    
        3564.       3564.       3563.       3563.       3563.       3565.       3565.       3570.       3571.       3573.    
        3570.       3569.       3569.       3572.       3579.       3582.    
  73    3537.       3537.       3536.       3531.       3531.       3531.       3527.       3524.       3518.       3518.    
        3512.       3501.       3498.       3500.       3500.       3500.       3502.       3502.       3502.       3499.    
        3499.       3499.       3499.       3496.       3496.       3496.       3498.       3498.       3498.       3504.    
        3504.       3504.       3503.       3503.       3503.       3503.       3503.       3503.       3507.       3507.    
        3507.       3506.       3506.       3506.       3506.       3506.       3506.       3508.       3508.       3508.    
        3507.       3507.       3507.       3504.       3504.       3504.       3505.       3505.       3505.       3508.    
        3508.       3508.       3512.       3512.       3512.       3518.       3518.       3518.       3521.       3521.    
        3521.       3522.       3522.       3522.       3522.       3523.       3523.       3523.       3525.       3525.    
        3525.       3526.       3526.       3526.       3527.       3527.       3527.       3527.       3527.       3527.    
        3527.       3527.       3527.       3526.       3526.       3526.       3527.       3527.       3527.       3526.    
        3526.       3526.       3526.       3526.       3526.       3528.       3528.       3528.       3530.       3530.    
        3530.       3532.       3532.       3532.       3532.       3532.       3532.       3532.       3532.       3532.    
        3533.       3533.       3533.       3534.       3534.       3534.       3535.       3535.       3535.       3534.    
        3534.       3534.       3534.       3534.       3534.       3534.       3534.       3534.       3534.       3537.    
        3537.       3537.       3541.       3541.       3541.       3542.       3542.       3542.       3543.       3543.    
        3543.       3543.       3543.       3543.       3544.       3544.       3544.       3545.       3545.       3545.    
        3547.       3547.       3547.       3551.       3551.       3555.       3555.       3557.       3558.       3563.    
        3564.       3564.       3563.       3563.       3563.       3565.       3565.       3570.       3571.       3573.    
        3570.       3569.       3569.       3572.       3579.       3582.    
  74    3543.       3539.       3538.       3535.       3535.       3533.       3531.       3527.       3522.       3522.    
        3518.       3509.       3503.       3503.       3503.       3503.       3499.       3499.       3499.       3501.    
        3501.       3501.       3501.       3500.       3500.       3500.       3499.       3499.       3499.       3504.    
        3504.       3504.       3506.       3506.       3506.       3507.       3507.       3507.       3506.       3506.    
        3506.       3507.       3507.       3507.       3507.       3507.       3507.       3507.       3507.       3507.    
        3508.       3508.       3508.       3507.       3507.       3507.       3509.       3509.       3509.       3513.    
        3513.       3513.       3519.       3519.       3519.       3525.       3525.       3525.       3528.       3528.    
        3528.       3532.       3532.       3532.       3532.       3534.       3534.       3534.       3535.       3535.    
        3535.       3537.       3537.       3537.       3537.       3537.       3537.       3537.       3537.       3537.    
        3537.       3537.       3537.       3538.       3538.       3538.       3538.       3538.       3538.       3540.    
        3540.       3540.       3539.       3539.       3539.       3541.       3541.       3541.       3540.       3540.    
        3540.       3541.       3541.       3541.       3541.       3541.       3541.       3542.       3542.       3542.    
        3542.       3542.       3542.       3545.       3545.       3545.       3547.       3547.       3547.       3546.    
        3546.       3546.       3546.       3545.       3545.       3545.       3545.       3545.       3545.       3547.    
        3547.       3547.       3551.       3551.       3551.       3553.       3553.       3553.       3553.       3553.    
        3553.       3552.       3552.       3552.       3553.       3553.       3553.       3554.       3554.       3554.    
        3554.       3554.       3554.       3555.       3555.       3559.       3559.       3563.       3562.       3563.    
        3568.       3568.       3569.       3570.       3570.       3570.       3570.       3570.       3571.       3572.    
        3573.       3573.       3573.       3576.       3580.       3582.    
  75    3543.       3539.       3538.       3535.       3535.       3533.       3531.       3527.       3522.       3522.    
        3518.       3509.       3503.       3503.       3503.       3503.       3499.       3499.       3499.       3501.    
        3501.       3501.       3501.       3500.       3500.       3500.       3499.       3499.       3499.       3504.    
        3504.       3504.       3506.       3506.       3506.       3507.       3507.       3507.       3506.       3506.    
        3506.       3507.       3507.       3507.       3507.       3507.       3507.       3507.       3507.       3507.    
        3508.       3508.       3508.       3507.       3507.       3507.       3509.       3509.       3509.       3513.    
        3513.       3513.       3519.       3519.       3519.       3525.       3525.       3525.       3528.       3528.    
        3528.       3532.       3532.       3532.       3532.       3534.       3534.       3534.       3535.       3535.    
        3535.       3537.       3537.       3537.       3537.       3537.       3537.       3537.       3537.       3537.    
        3537.       3537.       3537.       3538.       3538.       3538.       3538.       3538.       3538.       3540.    
        3540.       3540.       3539.       3539.       3539.       3541.       3541.       3541.       3540.       3540.    
        3540.       3541.       3541.       3541.       3541.       3541.       3541.       3542.       3542.       3542.    
        3542.       3542.       3542.       3545.       3545.       3545.       3547.       3547.       3547.       3546.    
        3546.       3546.       3546.       3545.       3545.       3545.       3545.       3545.       3545.       3547.    
        3547.       3547.       3551.       3551.       3551.       3553.       3553.       3553.       3553.       3553.    
        3553.       3552.       3552.       3552.       3553.       3553.       3553.       3554.       3554.       3554.    
        3554.       3554.       3554.       3555.       3555.       3559.       3559.       3563.       3562.       3563.    
        3568.       3568.       3569.       3570.       3570.       3570.       3570.       3570.       3571.       3572.    
        3573.       3573.       3573.       3576.       3580.       3582.    
  76    3547.       3545.       3541.       3538.       3538.       3535.       3533.       3530.       3525.       3525.    
        3520.       3514.       3508.       3505.       3503.       3503.       3495.       3495.       3495.       3500.    
        3500.       3500.       3500.       3500.       3500.       3500.       3501.       3501.       3501.       3502.    
        3502.       3502.       3504.       3504.       3504.       3504.       3504.       3504.       3506.       3506.    
        3506.       3509.       3509.       3509.       3509.       3509.       3509.       3509.       3509.       3509.    
        3509.       3509.       3509.       3511.       3511.       3511.       3514.       3514.       3514.       3520.    
        3520.       3520.       3527.       3527.       3527.       3532.       3532.       3532.       3533.       3533.    
        3533.       3535.       3535.       3535.       3535.       3538.       3538.       3538.       3539.       3539.    
        3539.       3538.       3538.       3538.       3539.       3539.       3539.       3542.       3542.       3542.    
        3543.       3543.       3543.       3543.       3543.       3543.       3543.       3543.       3543.       3545.    
        3545.       3545.       3547.       3547.       3547.       3547.       3547.       3547.       3546.       3546.    
        3546.       3545.       3545.       3545.       3547.       3547.       3547.       3547.       3547.       3547.    
        3548.       3548.       3548.       3550.       3550.       3550.       3552.       3552.       3552.       3551.    
        3551.       3551.       3551.       3551.       3551.       3551.       3552.       3552.       3552.       3552.    
        3552.       3552.       3554.       3554.       3554.       3556.       3556.       3556.       3559.       3559.    
        3559.       3559.       3559.       3559.       3560.       3560.       3560.       3561.       3561.       3561.    
        3560.       3560.       3560.       3559.       3559.       3560.       3560.       3564.       3565.       3567.    
        3568.       3568.       3575.       3577.       3576.       3575.       3575.       3574.       3573.       3574.    
        3575.       3576.       3576.       3579.       3583.       3583.    
  77    3547.       3545.       3541.       3538.       3538.       3535.       3533.       3530.       3525.       3525.    
        3520.       3514.       3508.       3505.       3503.       3503.       3495.       3495.       3495.       3500.    
        3500.       3500.       3500.       3500.       3500.       3500.       3501.       3501.       3501.       3502.    
        3502.       3502.       3504.       3504.       3504.       3504.       3504.       3504.       3506.       3506.    
        3506.       3509.       3509.       3509.       3509.       3509.       3509.       3509.       3509.       3509.    
        3509.       3509.       3509.       3511.       3511.       3511.       3514.       3514.       3514.       3520.    
        3520.       3520.       3527.       3527.       3527.       3532.       3532.       3532.       3533.       3533.    
        3533.       3535.       3535.       3535.       3535.       3538.       3538.       3538.       3539.       3539.    
        3539.       3538.       3538.       3538.       3539.       3539.       3539.       3542.       3542.       3542.    
        3543.       3543.       3543.       3543.       3543.       3543.       3543.       3543.       3543.       3545.    
        3545.       3545.       3547.       3547.       3547.       3547.       3547.       3547.       3546.       3546.    
        3546.       3545.       3545.       3545.       3547.       3547.       3547.       3547.       3547.       3547.    
        3548.       3548.       3548.       3550.       3550.       3550.       3552.       3552.       3552.       3551.    
        3551.       3551.       3551.       3551.       3551.       3551.       3552.       3552.       3552.       3552.    
        3552.       3552.       3554.       3554.       3554.       3556.       3556.       3556.       3559.       3559.    
        3559.       3559.       3559.       3559.       3560.       3560.       3560.       3561.       3561.       3561.    
        3560.       3560.       3560.       3559.       3559.       3560.       3560.       3564.       3565.       3567.    
        3568.       3568.       3575.       3577.       3576.       3575.       3575.       3574.       3573.       3574.    
        3575.       3576.       3576.       3579.       3583.       3583.    
  78    3546.       3543.       3539.       3537.       3537.       3536.       3531.       3528.       3525.       3525.    
        3521.       3517.       3509.       3507.       3508.       3508.       3504.       3504.       3504.       3501.    
        3501.       3501.       3501.       3499.       3499.       3499.       3500.       3500.       3500.       3505.    
        3505.       3505.       3504.       3504.       3504.       3503.       3503.       3503.       3506.       3506.    
        3506.       3511.       3511.       3511.       3512.       3512.       3512.       3512.       3512.       3512.    
        3510.       3510.       3510.       3514.       3514.       3514.       3518.       3518.       3518.       3524.    
        3524.       3524.       3529.       3529.       3529.       3535.       3535.       3535.       3536.       3536.    
        3536.       3536.       3536.       3536.       3536.       3537.       3537.       3537.       3540.       3540.    
        3540.       3540.       3540.       3540.       3542.       3542.       3542.       3543.       3543.       3543.    
        3540.       3540.       3540.       3540.       3540.       3540.       3543.       3543.       3543.       3545.    
        3545.       3545.       3549.       3549.       3549.       3551.       3551.       3551.       3549.       3549.    
        3549.       3547.       3547.       3547.       3546.       3546.       3546.       3548.       3548.       3548.    
        3550.       3550.       3550.       3552.       3552.       3552.       3552.       3552.       3552.       3552.    
        3552.       3552.       3552.       3553.       3553.       3553.       3554.       3554.       3554.       3555.    
        3555.       3555.       3557.       3557.       3557.       3561.       3561.       3561.       3562.       3562.    
        3562.       3562.       3562.       3562.       3563.       3563.       3563.       3563.       3563.       3563.    
        3563.       3563.       3563.       3564.       3564.       3565.       3565.       3569.       3574.       3574.    
        3575.       3575.       3575.       3580.       3578.       3579.       3579.       3577.       3577.       3580.    
        3583.       3586.       3586.       3588.       3588.       3589.    
  79    3546.       3543.       3540.       3540.       3540.       3540.       3537.       3530.       3526.       3526.    
        3523.       3519.       3512.       3508.       3504.       3504.       3498.       3498.       3498.       3497.    
        3497.       3497.       3497.       3500.       3500.       3500.       3500.       3500.       3500.       3498.    
        3498.       3498.       3500.       3500.       3500.       3501.       3501.       3501.       3504.       3504.    
        3504.       3510.       3510.       3510.       3513.       3513.       3513.       3511.       3511.       3511.    
        3510.       3510.       3510.       3516.       3516.       3516.       3523.       3523.       3523.       3526.    
        3526.       3526.       3530.       3530.       3530.       3536.       3536.       3536.       3539.       3539.    
        3539.       3538.       3538.       3538.       3538.       3537.       3537.       3537.       3539.       3539.    
        3539.       3541.       3541.       3541.       3543.       3543.       3543.       3544.       3544.       3544.    
        3542.       3542.       3542.       3544.       3544.       3544.       3548.       3548.       3548.       3552.    
        3552.       3552.       3554.       3554.       3554.       3557.       3557.       3557.       3558.       3558.    
        3558.       3557.       3557.       3557.       3555.       3555.       3555.       3557.       3557.       3557.    
        3556.       3556.       3556.       3555.       3555.       3555.       3555.       3555.       3555.       3556.    
        3556.       3556.       3556.       3559.       3559.       3559.       3559.       3559.       3559.       3560.    
        3560.       3560.       3562.       3562.       3562.       3566.       3566.       3566.       3566.       3566.    
        3566.       3565.       3565.       3565.       3564.       3564.       3564.       3562.       3562.       3562.    
        3562.       3562.       3562.       3564.       3564.       3569.       3569.       3576.       3579.       3578.    
        3578.       3578.       3580.       3582.       3582.       3583.       3583.       3583.       3580.       3583.    
        3584.       3586.       3586.       3588.       3588.       3587.    
  80    3550.       3548.       3544.       3543.       3543.       3541.       3539.       3531.       3527.       3527.    
        3524.       3520.       3515.       3507.       3499.       3499.       3494.       3494.       3494.       3493.    
        3493.       3493.       3493.       3497.       3497.       3497.       3499.       3499.       3499.       3500.    
        3500.       3500.       3503.       3503.       3503.       3504.       3504.       3504.       3504.       3504.    
        3504.       3506.       3506.       3506.       3509.       3509.       3509.       3508.       3508.       3508.    
        3509.       3509.       3509.       3516.       3516.       3516.       3525.       3525.       3525.       3527.    
        3527.       3527.       3530.       3530.       3530.       3533.       3533.       3533.       3536.       3536.    
        3536.       3536.       3536.       3536.       3536.       3538.       3538.       3538.       3540.       3540.    
        3540.       3540.       3540.       3540.       3542.       3542.       3542.       3544.       3544.       3544.    
        3548.       3548.       3548.       3547.       3547.       3547.       3553.       3553.       3553.       3556.    
        3556.       3556.       3558.       3558.       3558.       3560.       3560.       3560.       3564.       3564.    
        3564.       3565.       3565.       3565.       3563.       3563.       3563.       3562.       3562.       3562.    
        3560.       3560.       3560.       3557.       3557.       3557.       3556.       3556.       3556.       3559.    
        3559.       3559.       3559.       3564.       3564.       3564.       3567.       3567.       3567.       3568.    
        3568.       3568.       3570.       3570.       3570.       3571.       3571.       3571.       3571.       3571.    
        3571.       3570.       3570.       3570.       3570.       3570.       3570.       3568.       3568.       3568.    
        3570.       3570.       3570.       3572.       3572.       3575.       3575.       3579.       3581.       3580.    
        3582.       3582.       3583.       3582.       3581.       3583.       3583.       3582.       3582.       3582.    
        3584.       3587.       3587.       3589.       3589.       3588.    
  81    3554.       3553.       3548.       3543.       3543.       3540.       3537.       3532.       3528.       3528.    
        3527.       3523.       3517.       3509.       3499.       3499.       3495.       3495.       3495.       3496.    
        3496.       3496.       3496.       3495.       3495.       3495.       3500.       3500.       3500.       3503.    
        3503.       3503.       3503.       3503.       3503.       3504.       3504.       3504.       3505.       3505.    
        3505.       3507.       3507.       3507.       3508.       3508.       3508.       3508.       3508.       3508.    
        3511.       3511.       3511.       3517.       3517.       3517.       3524.       3524.       3524.       3524.    
        3524.       3524.       3526.       3526.       3526.       3530.       3530.       3530.       3533.       3533.    
        3533.       3536.       3536.       3536.       3536.       3539.       3539.       3539.       3542.       3542.    
        3542.       3542.       3542.       3542.       3542.       3542.       3542.       3546.       3546.       3546.    
        3551.       3551.       3551.       3554.       3554.       3554.       3556.       3556.       3556.       3557.    
        3557.       3557.       3560.       3560.       3560.       3565.       3565.       3565.       3569.       3569.    
        3569.       3572.       3572.       3572.       3571.       3571.       3571.       3566.       3566.       3566.    
        3566.       3566.       3566.       3566.       3566.       3566.       3569.       3569.       3569.       3571.    
        3571.       3571.       3571.       3575.       3575.       3575.       3576.       3576.       3576.       3574.    
        3574.       3574.       3573.       3573.       3573.       3574.       3574.       3574.       3578.       3578.    
        3578.       3581.       3581.       3581.       3582.       3582.       3582.       3581.       3581.       3581.    
        3579.       3579.       3579.       3578.       3578.       3577.       3577.       3579.       3580.       3580.    
        3580.       3580.       3580.       3580.       3581.       3587.       3587.       3590.       3592.       3590.    
        3589.       3592.       3592.       3594.       3595.       3596.    
  82    3554.       3553.       3548.       3543.       3543.       3540.       3537.       3532.       3528.       3528.    
        3527.       3523.       3517.       3509.       3499.       3499.       3495.       3495.       3495.       3496.    
        3496.       3496.       3496.       3495.       3495.       3495.       3500.       3500.       3500.       3503.    
        3503.       3503.       3503.       3503.       3503.       3504.       3504.       3504.       3505.       3505.    
        3505.       3507.       3507.       3507.       3508.       3508.       3508.       3508.       3508.       3508.    
        3511.       3511.       3511.       3517.       3517.       3517.       3524.       3524.       3524.       3524.    
        3524.       3524.       3526.       3526.       3526.       3530.       3530.       3530.       3533.       3533.    
        3533.       3536.       3536.       3536.       3536.       3539.       3539.       3539.       3542.       3542.    
        3542.       3542.       3542.       3542.       3542.       3542.       3542.       3546.       3546.       3546.    
        3551.       3551.       3551.       3554.       3554.       3554.       3556.       3556.       3559.       3557.    
        3557.       3557.       3560.       3560.       3560.       3565.       3565.       3565.       3569.       3569.    
        3569.       3572.       3572.       3572.       3571.       3571.       3571.       3566.       3566.       3566.    
        3566.       3566.       3566.       3566.       3566.       3566.       3569.       3569.       3584.       3571.    
        3571.       3571.       3571.       3575.       3575.       3575.       3576.       3576.       3576.       3574.    
        3574.       3574.       3573.       3573.       3573.       3574.       3574.       3574.       3578.       3578.    
        3578.       3581.       3581.       3581.       3582.       3582.       3582.       3580.       3581.       3581.    
        3579.       3579.       3579.       3578.       3578.       3577.       3577.       3579.       3580.       3580.    
        3580.       3580.       3580.       3580.       3581.       3587.       3587.       3590.       3592.       3590.    
        3589.       3592.       3592.       3594.       3595.       3596.    
  83    3553.       3551.       3547.       3543.       3543.       3539.       3536.       3532.       3529.       3529.    
        3528.       3525.       3520.       3509.       3502.       3502.       3495.       3495.       3495.       3492.    
        3492.       3492.       3492.       3496.       3496.       3496.       3501.       3501.       3501.       3502.    
        3502.       3502.       3505.       3505.       3505.       3506.       3506.       3506.       3507.       3507.    
        3507.       3509.       3509.       3509.       3510.       3510.       3510.       3511.       3511.       3511.    
        3512.       3512.       3512.       3517.       3517.       3517.       3524.       3524.       3524.       3526.    
        3526.       3526.       3524.       3524.       3524.       3525.       3525.       3525.       3529.       3529.    
        3529.       3533.       3533.       3533.       3533.       3537.       3537.       3537.       3540.       3540.    
        3540.       3542.       3542.       3542.       3545.       3545.       3545.       3550.       3550.       3550.    
        3555.       3555.       3555.       3558.       3558.       3558.       3559.       3559.       3559.       3559.    
        3559.       3559.       3560.       3560.       3560.       3566.       3566.       3566.       3571.       3571.    
        3571.       3574.       3574.       3574.       3576.       3576.       3576.       3575.       3575.       3575.    
        3575.       3575.       3575.       3580.       3580.       3580.       3584.       3584.       3584.       3587.    
        3587.       3587.       3587.       3585.       3585.       3585.       3582.       3582.       3582.       3580.    
        3580.       3580.       3578.       3578.       3578.       3581.       3581.       3581.       3584.       3584.    
        3584.       3582.       3582.       3582.       3581.       3581.       3581.       3580.       3580.       3580.    
        3578.       3578.       3578.       3578.       3578.       3579.       3579.       3579.       3580.       3579.    
        3580.       3580.       3580.       3581.       3585.       3587.       3587.       3599.       3603.       3606.    
        3606.       3607.       3607.       3609.       3611.       3611.    
  84    3552.       3549.       3545.       3541.       3541.       3538.       3534.       3532.       3528.       3528.    
        3526.       3522.       3518.       3512.       3503.       3503.       3495.       3495.       3495.       3495.    
        3495.       3495.       3495.       3498.       3498.       3498.       3501.       3501.       3501.       3502.    
        3502.       3502.       3503.       3503.       3503.       3504.       3504.       3504.       3506.       3506.    
        3506.       3510.       3510.       3510.       3511.       3511.       3511.       3512.       3512.       3512.    
        3511.       3511.       3511.       3518.       3518.       3518.       3531.       3531.       3531.       3534.    
        3534.       3534.       3529.       3529.       3529.       3525.       3525.       3525.       3526.       3526.    
        3526.       3531.       3531.       3531.       3531.       3534.       3534.       3534.       3537.       3537.    
        3537.       3538.       3538.       3538.       3542.       3542.       3542.       3548.       3548.       3548.    
        3556.       3556.       3556.       3557.       3557.       3557.       3557.       3557.       3557.       3558.    
        3558.       3558.       3560.       3560.       3560.       3565.       3565.       3565.       3570.       3570.    
        3570.       3576.       3576.       3576.       3578.       3578.       3578.       3578.       3578.       3578.    
        3577.       3577.       3577.       3579.       3579.       3579.       3581.       3581.       3581.       3583.    
        3583.       3583.       3583.       3585.       3585.       3585.       3588.       3588.       3588.       3588.    
        3588.       3588.       3588.       3588.       3588.       3589.       3589.       3589.       3591.       3591.    
        3591.       3592.       3592.       3592.       3588.       3588.       3588.       3583.       3583.       3583.    
        3580.       3580.       3580.       3579.       3579.       3578.       3578.       3578.       3581.       3583.    
        3584.       3584.       3585.       3588.       3593.       3598.       3598.       3599.       3608.       3608.    
        3610.       3613.       3613.       3615.       3613.       3612.    
  85    3552.       3550.       3546.       3542.       3542.       3538.       3534.       3531.       3528.       3528.    
        3526.       3522.       3516.       3510.       3504.       3504.       3497.       3497.       3497.       3498.    
        3498.       3498.       3498.       3504.       3504.       3504.       3500.       3500.       3500.       3499.    
        3499.       3499.       3500.       3500.       3500.       3502.       3502.       3502.       3506.       3506.    
        3506.       3511.       3511.       3511.       3511.       3511.       3511.       3510.       3510.       3510.    
        3513.       3513.       3513.       3519.       3519.       3519.       3533.       3533.       3533.       3536.    
        3536.       3536.       3539.       3539.       3539.       3532.       3532.       3532.       3530.       3530.    
        3530.       3534.       3534.       3534.       3534.       3536.       3536.       3536.       3536.       3536.    
        3536.       3536.       3536.       3536.       3540.       3540.       3540.       3545.       3545.       3545.    
        3552.       3552.       3552.       3558.       3558.       3558.       3557.       3557.       3557.       3557.    
        3557.       3557.       3562.       3562.       3562.       3568.       3568.       3568.       3572.       3572.    
        3572.       3574.       3574.       3574.       3577.       3577.       3577.       3582.       3582.       3582.    
        3584.       3584.       3584.       3583.       3583.       3583.       3583.       3583.       3583.       3586.    
        3586.       3586.       3586.       3589.       3589.       3589.       3592.       3592.       3592.       3593.    
        3593.       3593.       3593.       3593.       3593.       3594.       3594.       3594.       3600.       3600.    
        3600.       3601.       3601.       3601.       3600.       3600.       3600.       3594.       3594.       3594.    
        3589.       3589.       3589.       3588.       3588.       3587.       3587.       3586.       3588.       3589.    
        3589.       3589.       3592.       3596.       3600.       3605.       3605.       3608.       3608.       3613.    
        3612.       3614.       3614.       3616.       3618.       3617.    
  86    3557.       3550.       3546.       3544.       3544.       3541.       3536.       3531.       3526.       3526.    
        3521.       3516.       3510.       3505.       3501.       3501.       3501.       3501.       3501.       3505.    
        3505.       3505.       3505.       3505.       3505.       3505.       3503.       3503.       3503.       3499.    
        3499.       3499.       3500.       3500.       3500.       3503.       3503.       3503.       3507.       3507.    
        3507.       3509.       3509.       3509.       3509.       3509.       3509.       3508.       3508.       3508.    
        3512.       3512.       3512.       3517.       3517.       3517.       3530.       3530.       3530.       3545.    
        3545.       3545.       3546.       3546.       3546.       3541.       3541.       3541.       3536.       3536.    
        3536.       3538.       3538.       3538.       3538.       3537.       3537.       3537.       3538.       3538.    
        3538.       3540.       3540.       3540.       3541.       3541.       3541.       3543.       3543.       3543.    
        3547.       3547.       3547.       3553.       3553.       3553.       3558.       3558.       3558.       3561.    
        3561.       3561.       3569.       3569.       3569.       3577.       3577.       3577.       3579.       3579.    
        3579.       3578.       3578.       3578.       3581.       3581.       3581.       3585.       3585.       3585.    
        3587.       3587.       3587.       3588.       3588.       3588.       3589.       3589.       3589.       3591.    
        3591.       3591.       3591.       3593.       3593.       3593.       3595.       3595.       3595.       3594.    
        3594.       3594.       3594.       3594.       3594.       3597.       3597.       3597.       3600.       3600.    
        3600.       3600.       3600.       3600.       3602.       3602.       3602.       3603.       3603.       3603.    
        3599.       3599.       3599.       3596.       3596.       3593.       3593.       3592.       3593.       3596.    
        3597.       3597.       3599.       3601.       3601.       3603.       3603.       3609.       3612.       3613.    
        3612.       3614.       3614.       3616.       3617.       3617.    
  87    3557.       3550.       3546.       3544.       3544.       3541.       3536.       3531.       3526.       3526.    
        3521.       3516.       3510.       3505.       3501.       3501.       3501.       3501.       3501.       3505.    
        3505.       3505.       3505.       3505.       3505.       3505.       3503.       3503.       3503.       3499.    
        3499.       3499.       3500.       3500.       3500.       3503.       3503.       3503.       3507.       3507.    
        3507.       3509.       3509.       3509.       3509.       3509.       3509.       3508.       3508.       3508.    
        3512.       3512.       3512.       3517.       3517.       3517.       3530.       3530.       3530.       3545.    
        3545.       3545.       3546.       3546.       3546.       3541.       3541.       3541.       3536.       3536.    
        3536.       3538.       3538.       3538.       3538.       3537.       3537.       3537.       3538.       3538.    
        3538.       3540.       3540.       3540.       3541.       3541.       3541.       3543.       3543.       3543.    
        3547.       3547.       3547.       3553.       3553.       3553.       3558.       3558.       3558.       3561.    
        3561.       3561.       3569.       3569.       3569.       3577.       3577.       3577.       3579.       3579.    
        3579.       3578.       3578.       3578.       3581.       3581.       3581.       3585.       3585.       3585.    
        3587.       3587.       3587.       3588.       3588.       3588.       3589.       3589.       3589.       3591.    
        3591.       3591.       3591.       3593.       3593.       3593.       3595.       3595.       3595.       3594.    
        3594.       3594.       3594.       3594.       3594.       3597.       3597.       3597.       3600.       3600.    
        3600.       3600.       3600.       3600.       3602.       3602.       3602.       3603.       3603.       3603.    
        3599.       3599.       3599.       3596.       3596.       3593.       3593.       3592.       3593.       3596.    
        3597.       3597.       3599.       3601.       3601.       3603.       3603.       3609.       3612.       3613.    
        3612.       3614.       3614.       3616.       3617.       3617.    
  88    3560.       3553.       3549.       3546.       3546.       3543.       3538.       3532.       3526.       3526.    
        3520.       3516.       3508.       3505.       3506.       3506.       3500.       3500.       3500.       3504.    
        3504.       3504.       3504.       3507.       3507.       3507.       3505.       3505.       3505.       3501.    
        3501.       3501.       3502.       3502.       3502.       3505.       3505.       3505.       3506.       3506.    
        3506.       3511.       3511.       3511.       3510.       3510.       3510.       3511.       3511.       3511.    
        3513.       3513.       3513.       3518.       3518.       3518.       3531.       3531.       3531.       3545.    
        3545.       3545.       3546.       3546.       3546.       3541.       3541.       3541.       3541.       3541.    
        3541.       3540.       3540.       3540.       3540.       3537.       3537.       3537.       3537.       3537.    
        3537.       3538.       3538.       3538.       3540.       3540.       3540.       3541.       3541.       3541.    
        3542.       3542.       3542.       3545.       3545.       3545.       3551.       3551.       3551.       3561.    
        3561.       3561.       3571.       3571.       3571.       3578.       3578.       3578.       3581.       3581.    
        3581.       3582.       3582.       3582.       3584.       3584.       3584.       3585.       3585.       3585.    
        3585.       3585.       3585.       3586.       3586.       3586.       3587.       3587.       3587.       3588.    
        3588.       3588.       3588.       3589.       3589.       3589.       3593.       3593.       3593.       3596.    
        3596.       3596.       3596.       3596.       3596.       3598.       3598.       3598.       3598.       3598.    
        3598.       3600.       3600.       3600.       3602.       3602.       3602.       3605.       3605.       3605.    
        3605.       3605.       3605.       3603.       3603.       3602.       3602.       3597.       3595.       3596.    
        3598.       3598.       3601.       3603.       3603.       3603.       3603.       3606.       3609.       3611.    
        3616.       3619.       3619.       3620.       3618.       3618.    
  89    3559.       3553.       3548.       3543.       3543.       3540.       3536.       3531.       3525.       3525.    
        3519.       3514.       3512.       3507.       3508.       3508.       3506.       3506.       3506.       3508.    
        3508.       3508.       3508.       3502.       3502.       3502.       3502.       3502.       3502.       3502.    
        3502.       3502.       3504.       3504.       3504.       3504.       3504.       3504.       3507.       3507.    
        3507.       3509.       3509.       3509.       3517.       3517.       3517.       3518.       3518.       3518.    
        3517.       3517.       3517.       3521.       3521.       3521.       3529.       3529.       3529.       3543.    
        3543.       3543.       3546.       3546.       3546.       3547.       3547.       3547.       3546.       3546.    
        3546.       3543.       3543.       3543.       3543.       3539.       3539.       3539.       3539.       3539.    
        3539.       3538.       3538.       3538.       3537.       3537.       3537.       3538.       3538.       3538.    
        3540.       3540.       3540.       3546.       3546.       3546.       3551.       3551.       3551.       3556.    
        3556.       3556.       3566.       3566.       3566.       3576.       3576.       3576.       3581.       3581.    
        3581.       3581.       3581.       3581.       3586.       3586.       3586.       3586.       3586.       3586.    
        3584.       3584.       3584.       3583.       3583.       3583.       3584.       3584.       3584.       3586.    
        3586.       3586.       3586.       3591.       3591.       3591.       3594.       3594.       3594.       3596.    
        3596.       3596.       3597.       3597.       3597.       3598.       3598.       3598.       3599.       3599.    
        3599.       3603.       3603.       3603.       3603.       3603.       3603.       3607.       3607.       3607.    
        3611.       3611.       3611.       3608.       3608.       3605.       3605.       3603.       3602.       3602.    
        3599.       3599.       3599.       3601.       3603.       3605.       3605.       3609.       3612.       3616.    
        3616.       3621.       3621.       3625.       3622.       3622.    



             MODEL LAYER BOTTOM EL. FOR LAYER   1
 READING ON UNIT   12 WITH FORMAT: (FREE)              

            1           2           3           4           5           6           7           8           9          10
           11          12          13          14          15          16          17          18          19          20
           21          22          23          24          25          26          27          28          29          30
           31          32          33          34          35          36          37          38          39          40
           41          42          43          44          45          46          47          48          49          50
           51          52          53          54          55          56          57          58          59          60
           61          62          63          64          65          66          67          68          69          70
           71          72          73          74          75          76          77          78          79          80
           81          82          83          84          85          86          87          88          89          90
           91          92          93          94          95          96          97          98          99         100
          101         102         103         104         105         106         107         108         109         110
          111         112         113         114         115         116         117         118         119         120
          121         122         123         124         125         126         127         128         129         130
          131         132         133         134         135         136         137         138         139         140
          141         142         143         144         145         146         147         148         149         150
          151         152         153         154         155         156         157         158         159         160
          161         162         163         164         165         166         167         168         169         170
          171         172         173         174         175         176         177         178         179         180
          181         182         183         184         185         186
 ........................................................................................................................
   1    3442.       3447.       3450.       3448.       3448.       3444.       3447.       3446.       3446.       3446.    
        3443.       3442.       3443.       3448.       3454.       3454.       3457.       3457.       3457.       3461.    
        3461.       3461.       3461.       3462.       3462.       3462.       3470.       3470.       3470.       3477.    
        3477.       3477.       3485.       3485.       3485.       3482.       3482.       3482.       3483.       3483.    
        3483.       3485.       3485.       3485.       3484.       3484.       3484.       3484.       3484.       3484.    
        3483.       3483.       3483.       3484.       3484.       3484.       3485.       3485.       3485.       3486.    
        3486.       3486.       3486.       3486.       3486.       3487.       3487.       3487.       3488.       3488.    
        3488.       3488.       3488.       3488.       3488.       3488.       3488.       3488.       3490.       3490.    
        3490.       3490.       3490.       3490.       3492.       3492.       3492.       3491.       3491.       3491.    
        3490.       3490.       3490.       3493.       3493.       3493.       3496.       3496.       3496.       3502.    
        3502.       3502.       3505.       3505.       3505.       3510.       3510.       3510.       3515.       3515.    
        3515.       3520.       3520.       3520.       3526.       3526.       3526.       3531.       3531.       3531.    
        3533.       3533.       3533.       3534.       3534.       3534.       3534.       3534.       3534.       3534.    
        3534.       3534.       3534.       3532.       3532.       3532.       3533.       3533.       3533.       3536.    
        3536.       3536.       3536.       3536.       3536.       3538.       3538.       3538.       3538.       3538.    
        3538.       3538.       3538.       3538.       3540.       3540.       3540.       3538.       3538.       3538.    
        3536.       3536.       3536.       3536.       3536.       3537.       3537.       3537.       3538.       3538.    
        3538.       3538.       3540.       3542.       3544.       3546.       3546.       3546.       3547.       3549.    
        3550.       3548.       3548.       3547.       3550.       3552.    
   2    3444.       3444.       3449.       3451.       3451.       3446.       3445.       3444.       3445.       3445.    
        3442.       3442.       3446.       3451.       3457.       3457.       3457.       3457.       3457.       3459.    
        3459.       3459.       3459.       3462.       3462.       3462.       3467.       3467.       3467.       3474.    
        3474.       3474.       3480.       3480.       3480.       3482.       3482.       3482.       3484.       3484.    
        3484.       3484.       3484.       3484.       3483.       3483.       3483.       3483.       3483.       3483.    
        3482.       3482.       3482.       3484.       3484.       3484.       3484.       3484.       3484.       3485.    
        3485.       3485.       3485.       3485.       3485.       3486.       3486.       3486.       3486.       3486.    
        3486.       3487.       3487.       3487.       3487.       3489.       3489.       3489.       3490.       3490.    
        3490.       3490.       3490.       3490.       3490.       3490.       3490.       3490.       3490.       3490.    
        3490.       3490.       3490.       3492.       3492.       3492.       3495.       3495.       3495.       3496.    
        3496.       3496.       3498.       3498.       3498.       3503.       3503.       3503.       3510.       3510.    
        3510.       3520.       3520.       3520.       3528.       3528.       3528.       3531.       3531.       3531.    
        3532.       3532.       3532.       3530.       3530.       3530.       3530.       3530.       3530.       3533.    
        3533.       3533.       3533.       3533.       3533.       3533.       3535.       3535.       3535.       3537.    
        3537.       3537.       3538.       3538.       3538.       3538.       3538.       3538.       3538.       3538.    
        3538.       3538.       3538.       3538.       3538.       3538.       3538.       3537.       3537.       3537.    
        3536.       3536.       3536.       3536.       3536.       3538.       3538.       3539.       3538.       3539.    
        3539.       3539.       3541.       3542.       3542.       3542.       3542.       3544.       3544.       3544.    
        3546.       3550.       3550.       3549.       3552.       3554.    
   3    3444.       3442.       3448.       3447.       3447.       3444.       3444.       3444.       3442.       3442.    
        3442.       3445.       3448.       3454.       3458.       3458.       3458.       3458.       3458.       3458.    
        3458.       3458.       3458.       3460.       3460.       3460.       3464.       3464.       3464.       3468.    
        3468.       3468.       3474.       3474.       3474.       3479.       3479.       3479.       3482.       3482.    
        3482.       3483.       3483.       3483.       3485.       3485.       3485.       3485.       3485.       3485.    
        3482.       3482.       3482.       3482.       3482.       3482.       3482.       3482.       3482.       3483.    
        3483.       3483.       3485.       3485.       3485.       3486.       3486.       3486.       3486.       3486.    
        3486.       3487.       3487.       3487.       3487.       3488.       3488.       3488.       3488.       3488.    
        3488.       3490.       3490.       3490.       3490.       3490.       3490.       3488.       3488.       3488.    
        3487.       3487.       3487.       3490.       3490.       3490.       3494.       3494.       3494.       3493.    
        3493.       3493.       3493.       3493.       3493.       3496.       3496.       3496.       3502.       3502.    
        3502.       3512.       3512.       3512.       3522.       3522.       3522.       3529.       3529.       3529.    
        3530.       3530.       3530.       3528.       3528.       3528.       3528.       3528.       3528.       3530.    
        3530.       3530.       3530.       3532.       3532.       3532.       3533.       3533.       3533.       3534.    
        3534.       3534.       3534.       3534.       3534.       3535.       3535.       3535.       3536.       3536.    
        3536.       3538.       3538.       3538.       3537.       3537.       3537.       3536.       3536.       3536.    
        3537.       3537.       3537.       3537.       3537.       3538.       3538.       3538.       3537.       3537.    
        3538.       3538.       3538.       3538.       3540.       3542.       3542.       3545.       3546.       3546.    
        3550.       3551.       3551.       3550.       3554.       3554.    
   4    3444.       3442.       3446.       3446.       3446.       3444.       3444.       3444.       3444.       3444.    
        3444.       3446.       3447.       3450.       3456.       3456.       3457.       3457.       3457.       3458.    
        3458.       3458.       3458.       3461.       3461.       3461.       3465.       3465.       3465.       3466.    
        3466.       3466.       3467.       3467.       3467.       3474.       3474.       3474.       3479.       3479.    
        3479.       3484.       3484.       3484.       3485.       3485.       3485.       3485.       3485.       3485.    
        3485.       3485.       3485.       3485.       3485.       3485.       3485.       3485.       3485.       3485.    
        3485.       3485.       3486.       3486.       3486.       3486.       3486.       3486.       3488.       3488.    
        3488.       3488.       3488.       3488.       3488.       3487.       3487.       3487.       3488.       3488.    
        3488.       3490.       3490.       3490.       3489.       3489.       3489.       3488.       3488.       3488.    
        3487.       3487.       3487.       3490.       3490.       3490.       3494.       3494.       3494.       3494.    
        3494.       3494.       3493.       3493.       3493.       3494.       3494.       3494.       3497.       3497.    
        3497.       3501.       3501.       3501.       3506.       3506.       3506.       3514.       3514.       3514.    
        3521.       3521.       3521.       3526.       3526.       3526.       3528.       3528.       3528.       3530.    
        3530.       3530.       3530.       3530.       3530.       3530.       3530.       3530.       3530.       3531.    
        3531.       3531.       3533.       3533.       3533.       3534.       3534.       3534.       3536.       3536.    
        3536.       3539.       3539.       3539.       3538.       3538.       3538.       3537.       3537.       3537.    
        3538.       3538.       3538.       3538.       3538.       3538.       3538.       3537.       3536.       3537.    
        3537.       3537.       3538.       3538.       3539.       3540.       3540.       3541.       3542.       3543.    
        3546.       3547.       3547.       3549.       3550.       3551.    
   5    3444.       3442.       3446.       3446.       3446.       3444.       3444.       3444.       3444.       3444.    
        3444.       3446.       3447.       3450.       3456.       3456.       3457.       3457.       3457.       3458.    
        3458.       3458.       3458.       3461.       3461.       3461.       3465.       3465.       3465.       3466.    
        3466.       3466.       3467.       3467.       3467.       3474.       3474.       3474.       3479.       3479.    
        3479.       3484.       3484.       3484.       3485.       3485.       3485.       3485.       3485.       3485.    
        3485.       3485.       3485.       3485.       3485.       3485.       3485.       3485.       3485.       3485.    
        3485.       3485.       3486.       3486.       3486.       3486.       3486.       3486.       3488.       3488.    
        3488.       3488.       3488.       3488.       3488.       3487.       3487.       3487.       3488.       3488.    
        3488.       3490.       3490.       3490.       3489.       3489.       3489.       3488.       3488.       3488.    
        3487.       3487.       3487.       3490.       3490.       3490.       3494.       3494.       3494.       3494.    
        3494.       3494.       3493.       3493.       3493.       3494.       3494.       3494.       3497.       3497.    
        3497.       3501.       3501.       3501.       3506.       3506.       3506.       3514.       3514.       3514.    
        3521.       3521.       3521.       3526.       3526.       3526.       3528.       3528.       3528.       3530.    
        3530.       3530.       3530.       3530.       3530.       3530.       3530.       3530.       3530.       3531.    
        3531.       3531.       3533.       3533.       3533.       3534.       3534.       3534.       3536.       3536.    
        3536.       3539.       3539.       3539.       3538.       3538.       3538.       3537.       3537.       3537.    
        3538.       3538.       3538.       3538.       3538.       3538.       3538.       3537.       3536.       3537.    
        3537.       3537.       3538.       3538.       3539.       3540.       3540.       3541.       3542.       3543.    
        3546.       3547.       3547.       3549.       3550.       3551.    
   6    3446.       3445.       3446.       3446.       3446.       3445.       3445.       3447.       3440.       3440.    
        3443.       3446.       3449.       3451.       3454.       3454.       3458.       3458.       3458.       3458.    
        3458.       3458.       3458.       3462.       3462.       3462.       3466.       3466.       3466.       3465.    
        3465.       3465.       3464.       3464.       3464.       3467.       3467.       3467.       3474.       3474.    
        3474.       3481.       3481.       3481.       3484.       3484.       3484.       3485.       3485.       3485.    
        3484.       3484.       3484.       3484.       3484.       3484.       3486.       3486.       3486.       3486.    
        3486.       3486.       3485.       3485.       3485.       3487.       3487.       3487.       3488.       3488.    
        3488.       3487.       3487.       3487.       3487.       3487.       3487.       3487.       3489.       3489.    
        3489.       3490.       3490.       3490.       3486.       3486.       3486.       3486.       3486.       3486.    
        3487.       3487.       3487.       3491.       3491.       3491.       3494.       3494.       3494.       3496.    
        3496.       3496.       3496.       3496.       3496.       3494.       3494.       3494.       3496.       3496.    
        3496.       3498.       3498.       3498.       3498.       3498.       3498.       3501.       3501.       3501.    
        3505.       3505.       3505.       3509.       3509.       3509.       3514.       3514.       3514.       3520.    
        3520.       3520.       3520.       3524.       3524.       3524.       3527.       3527.       3527.       3531.    
        3531.       3531.       3534.       3534.       3534.       3534.       3534.       3534.       3535.       3535.    
        3535.       3541.       3541.       3541.       3539.       3539.       3539.       3538.       3538.       3538.    
        3537.       3537.       3537.       3538.       3538.       3538.       3538.       3537.       3533.       3531.    
        3531.       3531.       3531.       3532.       3534.       3535.       3535.       3534.       3532.       3531.    
        3533.       3534.       3534.       3535.       3540.       3543.    
   7    3445.       3444.       3442.       3446.       3446.       3445.       3446.       3446.       3446.       3446.    
        3446.       3448.       3448.       3452.       3457.       3457.       3458.       3458.       3458.       3459.    
        3459.       3459.       3459.       3462.       3462.       3462.       3466.       3466.       3466.       3464.    
        3464.       3464.       3462.       3462.       3462.       3464.       3464.       3464.       3468.       3468.    
        3468.       3474.       3474.       3474.       3479.       3479.       3479.       3483.       3483.       3483.    
        3485.       3485.       3485.       3486.       3486.       3486.       3488.       3488.       3488.       3487.    
        3487.       3487.       3486.       3486.       3486.       3486.       3486.       3486.       3487.       3487.    
        3487.       3487.       3487.       3487.       3487.       3488.       3488.       3488.       3488.       3488.    
        3488.       3488.       3488.       3488.       3486.       3486.       3486.       3486.       3486.       3486.    
        3489.       3489.       3489.       3491.       3491.       3491.       3493.       3493.       3493.       3494.    
        3494.       3494.       3498.       3498.       3498.       3496.       3496.       3496.       3495.       3495.    
        3495.       3498.       3498.       3498.       3499.       3499.       3499.       3501.       3501.       3501.    
        3502.       3502.       3502.       3503.       3503.       3503.       3506.       3506.       3506.       3508.    
        3508.       3508.       3508.       3510.       3510.       3510.       3514.       3514.       3514.       3518.    
        3518.       3518.       3525.       3525.       3525.       3530.       3530.       3530.       3534.       3534.    
        3534.       3536.       3536.       3536.       3534.       3534.       3534.       3528.       3528.       3528.    
        3524.       3524.       3524.       3520.       3520.       3517.       3517.       3515.       3511.       3510.    
        3508.       3508.       3508.       3507.       3509.       3511.       3511.       3513.       3514.       3518.    
        3522.       3522.       3522.       3523.       3525.       3526.    
   8    3446.       3445.       3448.       3448.       3448.       3442.       3442.       3446.       3447.       3447.    
        3447.       3450.       3451.       3455.       3458.       3458.       3461.       3461.       3461.       3461.    
        3461.       3461.       3461.       3461.       3461.       3461.       3462.       3462.       3462.       3465.    
        3465.       3465.       3462.       3462.       3462.       3462.       3462.       3462.       3463.       3463.    
        3463.       3468.       3468.       3468.       3472.       3472.       3472.       3478.       3478.       3478.    
        3483.       3483.       3483.       3489.       3489.       3489.       3491.       3491.       3491.       3490.    
        3490.       3490.       3488.       3488.       3488.       3487.       3487.       3487.       3487.       3487.    
        3487.       3488.       3488.       3488.       3488.       3490.       3490.       3490.       3490.       3490.    
        3490.       3487.       3487.       3487.       3486.       3486.       3486.       3486.       3486.       3486.    
        3489.       3489.       3489.       3491.       3491.       3491.       3490.       3490.       3490.       3491.    
        3491.       3491.       3494.       3494.       3494.       3497.       3497.       3497.       3496.       3496.    
        3496.       3494.       3494.       3494.       3494.       3494.       3494.       3496.       3496.       3496.    
        3498.       3498.       3498.       3502.       3502.       3502.       3504.       3504.       3504.       3506.    
        3506.       3506.       3506.       3506.       3506.       3506.       3506.       3506.       3506.       3507.    
        3507.       3507.       3510.       3510.       3510.       3516.       3516.       3516.       3520.       3520.    
        3520.       3520.       3520.       3520.       3513.       3513.       3513.       3508.       3508.       3508.    
        3504.       3504.       3504.       3500.       3500.       3499.       3499.       3499.       3500.       3501.    
        3499.       3499.       3498.       3498.       3501.       3502.       3502.       3502.       3503.       3504.    
        3506.       3510.       3510.       3513.       3514.       3514.    
   9    3446.       3447.       3450.       3447.       3447.       3448.       3442.       3446.       3446.       3446.    
        3446.       3450.       3450.       3454.       3456.       3456.       3458.       3458.       3458.       3460.    
        3460.       3460.       3460.       3460.       3460.       3460.       3460.       3460.       3460.       3462.    
        3462.       3462.       3462.       3462.       3462.       3462.       3462.       3462.       3461.       3461.    
        3461.       3463.       3463.       3463.       3466.       3466.       3466.       3470.       3470.       3470.    
        3478.       3478.       3478.       3485.       3485.       3485.       3489.       3489.       3489.       3490.    
        3490.       3490.       3491.       3491.       3491.       3492.       3492.       3492.       3492.       3492.    
        3492.       3491.       3491.       3491.       3491.       3492.       3492.       3492.       3492.       3492.    
        3492.       3491.       3491.       3491.       3490.       3490.       3490.       3490.       3490.       3490.    
        3490.       3490.       3490.       3490.       3490.       3490.       3490.       3490.       3490.       3492.    
        3492.       3492.       3495.       3495.       3495.       3499.       3499.       3499.       3499.       3499.    
        3499.       3498.       3498.       3498.       3495.       3495.       3495.       3494.       3494.       3494.    
        3493.       3493.       3493.       3495.       3495.       3495.       3498.       3498.       3498.       3501.    
        3501.       3501.       3501.       3503.       3503.       3503.       3505.       3505.       3505.       3506.    
        3506.       3506.       3508.       3508.       3508.       3509.       3509.       3509.       3505.       3505.    
        3505.       3501.       3501.       3501.       3501.       3501.       3501.       3502.       3502.       3502.    
        3498.       3498.       3498.       3496.       3496.       3497.       3497.       3498.       3498.       3497.    
        3493.       3493.       3491.       3494.       3498.       3498.       3498.       3498.       3497.       3495.    
        3497.       3501.       3501.       3502.       3501.       3500.    
  10    3450.       3450.       3450.       3451.       3451.       3450.       3445.       3442.       3446.       3446.    
        3447.       3449.       3450.       3450.       3454.       3454.       3457.       3457.       3457.       3461.    
        3461.       3461.       3461.       3461.       3461.       3461.       3462.       3462.       3462.       3464.    
        3464.       3464.       3464.       3464.       3464.       3465.       3465.       3465.       3464.       3464.    
        3464.       3463.       3463.       3463.       3463.       3463.       3463.       3466.       3466.       3466.    
        3470.       3470.       3470.       3476.       3476.       3476.       3484.       3484.       3484.       3487.    
        3487.       3487.       3488.       3488.       3488.       3489.       3489.       3489.       3490.       3490.    
        3490.       3493.       3493.       3493.       3493.       3494.       3494.       3494.       3492.       3492.    
        3492.       3493.       3493.       3493.       3493.       3493.       3493.       3493.       3493.       3493.    
        3494.       3494.       3494.       3494.       3494.       3494.       3492.       3492.       3492.       3492.    
        3492.       3492.       3497.       3497.       3497.       3498.       3498.       3498.       3499.       3499.    
        3499.       3500.       3500.       3500.       3499.       3499.       3499.       3498.       3498.       3498.    
        3497.       3497.       3497.       3495.       3495.       3495.       3494.       3494.       3494.       3494.    
        3494.       3494.       3494.       3497.       3497.       3497.       3499.       3499.       3499.       3501.    
        3501.       3501.       3501.       3501.       3501.       3495.       3495.       3495.       3488.       3488.    
        3488.       3486.       3486.       3486.       3490.       3490.       3490.       3493.       3493.       3493.    
        3492.       3492.       3492.       3490.       3490.       3490.       3490.       3491.       3491.       3491.    
        3489.       3489.       3489.       3490.       3492.       3494.       3494.       3495.       3494.       3493.    
        3494.       3494.       3494.       3495.       3496.       3496.    
  11    3450.       3450.       3450.       3451.       3451.       3450.       3445.       3442.       3446.       3446.    
        3447.       3449.       3450.       3450.       3454.       3454.       3457.       3457.       3457.       3461.    
        3461.       3461.       3461.       3461.       3461.       3461.       3462.       3462.       3462.       3464.    
        3464.       3464.       3464.       3464.       3464.       3465.       3465.       3465.       3464.       3464.    
        3464.       3463.       3463.       3463.       3463.       3463.       3463.       3466.       3466.       3466.    
        3470.       3470.       3470.       3476.       3476.       3476.       3484.       3484.       3484.       3487.    
        3487.       3487.       3488.       3488.       3488.       3489.       3489.       3489.       3490.       3490.    
        3490.       3493.       3493.       3493.       3493.       3494.       3494.       3494.       3492.       3492.    
        3492.       3493.       3493.       3493.       3493.       3493.       3493.       3493.       3493.       3493.    
        3494.       3494.       3494.       3494.       3494.       3494.       3492.       3492.       3492.       3492.    
        3492.       3492.       3497.       3497.       3497.       3498.       3498.       3498.       3499.       3499.    
        3499.       3500.       3500.       3500.       3499.       3499.       3499.       3498.       3498.       3498.    
        3497.       3497.       3497.       3495.       3495.       3495.       3494.       3494.       3494.       3494.    
        3494.       3494.       3494.       3497.       3497.       3497.       3499.       3499.       3499.       3501.    
        3501.       3501.       3501.       3501.       3501.       3495.       3495.       3495.       3488.       3488.    
        3488.       3486.       3486.       3486.       3490.       3490.       3490.       3493.       3493.       3493.    
        3492.       3492.       3492.       3490.       3490.       3490.       3490.       3491.       3491.       3491.    
        3489.       3489.       3489.       3490.       3492.       3494.       3494.       3495.       3494.       3493.    
        3494.       3494.       3494.       3495.       3496.       3496.    
  12    3450.       3450.       3450.       3453.       3453.       3448.       3445.       3444.       3446.       3446.    
        3446.       3446.       3446.       3448.       3451.       3451.       3454.       3454.       3454.       3459.    
        3459.       3459.       3459.       3463.       3463.       3463.       3463.       3463.       3463.       3466.    
        3466.       3466.       3466.       3466.       3466.       3464.       3464.       3464.       3466.       3466.    
        3466.       3466.       3466.       3466.       3464.       3464.       3464.       3465.       3465.       3465.    
        3466.       3466.       3466.       3470.       3470.       3470.       3474.       3474.       3474.       3479.    
        3479.       3479.       3484.       3484.       3484.       3486.       3486.       3486.       3488.       3488.    
        3488.       3490.       3490.       3490.       3490.       3490.       3490.       3490.       3491.       3491.    
        3491.       3490.       3490.       3490.       3492.       3492.       3492.       3491.       3491.       3491.    
        3492.       3492.       3492.       3493.       3493.       3493.       3494.       3494.       3494.       3494.    
        3494.       3494.       3497.       3497.       3497.       3494.       3494.       3494.       3496.       3496.    
        3496.       3497.       3497.       3497.       3497.       3497.       3497.       3496.       3496.       3496.    
        3495.       3495.       3495.       3494.       3494.       3494.       3494.       3494.       3494.       3495.    
        3495.       3495.       3495.       3492.       3492.       3492.       3490.       3490.       3490.       3488.    
        3488.       3488.       3486.       3486.       3486.       3482.       3482.       3482.       3479.       3479.    
        3479.       3480.       3480.       3480.       3479.       3479.       3479.       3480.       3480.       3480.    
        3482.       3482.       3482.       3484.       3484.       3486.       3486.       3487.       3487.       3486.    
        3485.       3485.       3485.       3485.       3486.       3490.       3490.       3490.       3490.       3491.    
        3492.       3492.       3492.       3494.       3495.       3497.    
  13    3450.       3447.       3445.       3446.       3446.       3447.       3446.       3446.       3446.       3446.    
        3443.       3442.       3443.       3446.       3449.       3449.       3452.       3452.       3452.       3456.    
        3456.       3456.       3456.       3460.       3460.       3460.       3462.       3462.       3462.       3465.    
        3465.       3465.       3465.       3465.       3465.       3462.       3462.       3462.       3462.       3462.    
        3462.       3462.       3462.       3462.       3462.       3462.       3462.       3462.       3462.       3462.    
        3463.       3463.       3463.       3465.       3465.       3465.       3466.       3466.       3466.       3468.    
        3468.       3468.       3472.       3472.       3472.       3477.       3477.       3477.       3481.       3481.    
        3481.       3483.       3483.       3483.       3483.       3485.       3485.       3485.       3486.       3486.    
        3486.       3486.       3486.       3486.       3487.       3487.       3487.       3489.       3489.       3489.    
        3490.       3490.       3490.       3490.       3490.       3490.       3490.       3490.       3490.       3490.    
        3490.       3490.       3492.       3492.       3492.       3494.       3494.       3494.       3490.       3490.    
        3490.       3490.       3490.       3490.       3490.       3490.       3490.       3491.       3491.       3491.    
        3493.       3493.       3493.       3493.       3493.       3493.       3492.       3492.       3492.       3492.    
        3492.       3492.       3492.       3487.       3487.       3487.       3482.       3482.       3482.       3480.    
        3480.       3480.       3478.       3478.       3478.       3478.       3478.       3478.       3476.       3476.    
        3476.       3476.       3476.       3476.       3475.       3475.       3475.       3474.       3474.       3474.    
        3475.       3475.       3475.       3478.       3478.       3479.       3479.       3481.       3482.       3482.    
        3483.       3483.       3484.       3486.       3487.       3490.       3490.       3490.       3490.       3490.    
        3493.       3494.       3494.       3494.       3495.       3498.    
  14    3453.       3450.       3446.       3446.       3446.       3446.       3449.       3447.       3445.       3445.    
        3443.       3446.       3446.       3446.       3446.       3446.       3449.       3449.       3449.       3454.    
        3454.       3454.       3454.       3459.       3459.       3459.       3462.       3462.       3462.       3462.    
        3462.       3462.       3462.       3462.       3462.       3460.       3460.       3460.       3459.       3459.    
        3459.       3459.       3459.       3459.       3460.       3460.       3460.       3461.       3461.       3461.    
        3462.       3462.       3462.       3462.       3462.       3462.       3460.       3460.       3460.       3462.    
        3462.       3462.       3465.       3465.       3465.       3469.       3469.       3469.       3472.       3472.    
        3472.       3474.       3474.       3474.       3474.       3475.       3475.       3475.       3477.       3477.    
        3477.       3478.       3478.       3478.       3482.       3482.       3482.       3483.       3483.       3483.    
        3484.       3484.       3484.       3484.       3484.       3484.       3484.       3484.       3484.       3485.    
        3485.       3485.       3486.       3486.       3486.       3487.       3487.       3487.       3490.       3490.    
        3490.       3483.       3483.       3483.       3482.       3482.       3482.       3482.       3482.       3482.    
        3482.       3482.       3482.       3482.       3482.       3482.       3482.       3482.       3482.       3481.    
        3481.       3481.       3481.       3480.       3480.       3480.       3478.       3478.       3478.       3475.    
        3475.       3475.       3475.       3475.       3475.       3475.       3475.       3475.       3477.       3477.    
        3477.       3478.       3478.       3478.       3479.       3479.       3479.       3478.       3478.       3478.    
        3479.       3479.       3479.       3480.       3480.       3482.       3482.       3483.       3482.       3482.    
        3485.       3485.       3488.       3489.       3490.       3492.       3492.       3492.       3491.       3491.    
        3492.       3492.       3492.       3492.       3494.       3497.    
  15    3456.       3452.       3448.       3446.       3446.       3446.       3450.       3450.       3447.       3447.    
        3445.       3446.       3448.       3450.       3448.       3448.       3448.       3448.       3448.       3450.    
        3450.       3450.       3450.       3455.       3455.       3455.       3459.       3459.       3459.       3462.    
        3462.       3462.       3464.       3464.       3464.       3463.       3463.       3463.       3465.       3465.    
        3465.       3466.       3466.       3466.       3466.       3466.       3466.       3467.       3467.       3467.    
        3466.       3466.       3466.       3467.       3467.       3467.       3466.       3466.       3466.       3465.    
        3465.       3465.       3464.       3464.       3464.       3464.       3464.       3464.       3465.       3465.    
        3465.       3466.       3466.       3466.       3466.       3468.       3468.       3468.       3470.       3470.    
        3470.       3472.       3472.       3472.       3473.       3473.       3473.       3474.       3474.       3474.    
        3476.       3476.       3476.       3477.       3477.       3477.       3478.       3478.       3478.       3478.    
        3478.       3478.       3478.       3478.       3478.       3481.       3481.       3481.       3482.       3482.    
        3482.       3477.       3477.       3477.       3478.       3478.       3478.       3481.       3481.       3481.    
        3481.       3481.       3481.       3480.       3480.       3480.       3478.       3478.       3478.       3473.    
        3473.       3473.       3473.       3473.       3473.       3473.       3474.       3474.       3474.       3475.    
        3475.       3475.       3475.       3475.       3475.       3475.       3475.       3475.       3478.       3478.    
        3478.       3480.       3480.       3480.       3481.       3481.       3481.       3482.       3482.       3482.    
        3484.       3484.       3484.       3487.       3487.       3488.       3488.       3486.       3484.       3484.    
        3486.       3486.       3490.       3490.       3491.       3492.       3492.       3494.       3494.       3494.    
        3494.       3493.       3493.       3494.       3496.       3498.    
  16    3459.       3456.       3453.       3448.       3448.       3442.       3444.       3449.       3450.       3450.    
        3446.       3445.       3446.       3449.       3450.       3450.       3450.       3450.       3450.       3450.    
        3450.       3450.       3450.       3451.       3451.       3451.       3451.       3451.       3451.       3454.    
        3454.       3454.       3457.       3457.       3457.       3460.       3460.       3460.       3462.       3462.    
        3462.       3461.       3461.       3461.       3465.       3465.       3465.       3466.       3466.       3466.    
        3466.       3466.       3466.       3466.       3466.       3466.       3467.       3467.       3467.       3470.    
        3470.       3470.       3470.       3470.       3470.       3470.       3470.       3470.       3470.       3470.    
        3470.       3467.       3467.       3467.       3467.       3467.       3467.       3467.       3469.       3469.    
        3469.       3470.       3470.       3470.       3470.       3470.       3470.       3469.       3469.       3469.    
        3470.       3470.       3470.       3471.       3471.       3471.       3473.       3473.       3473.       3474.    
        3474.       3474.       3475.       3475.       3475.       3476.       3476.       3476.       3477.       3477.    
        3477.       3477.       3477.       3477.       3473.       3473.       3473.       3474.       3474.       3474.    
        3476.       3476.       3476.       3475.       3475.       3475.       3474.       3474.       3474.       3471.    
        3471.       3471.       3471.       3471.       3471.       3471.       3472.       3472.       3472.       3474.    
        3474.       3474.       3475.       3475.       3475.       3475.       3475.       3475.       3478.       3478.    
        3478.       3479.       3479.       3479.       3481.       3481.       3481.       3482.       3482.       3482.    
        3483.       3483.       3483.       3485.       3485.       3486.       3486.       3485.       3485.       3486.    
        3487.       3487.       3489.       3489.       3490.       3493.       3493.       3494.       3495.       3494.    
        3492.       3492.       3492.       3494.       3497.       3498.    
  17    3459.       3456.       3453.       3448.       3448.       3442.       3444.       3449.       3450.       3450.    
        3446.       3445.       3446.       3449.       3450.       3450.       3450.       3450.       3450.       3450.    
        3450.       3450.       3450.       3451.       3451.       3451.       3451.       3451.       3451.       3454.    
        3454.       3454.       3457.       3457.       3457.       3460.       3460.       3460.       3462.       3462.    
        3462.       3461.       3461.       3461.       3465.       3465.       3465.       3466.       3466.       3466.    
        3466.       3466.       3466.       3466.       3466.       3466.       3467.       3467.       3467.       3470.    
        3470.       3470.       3470.       3470.       3470.       3470.       3470.       3470.       3470.       3470.    
        3470.       3467.       3467.       3467.       3467.       3467.       3467.       3467.       3469.       3469.    
        3469.       3470.       3470.       3470.       3470.       3470.       3470.       3469.       3469.       3469.    
        3470.       3470.       3470.       3471.       3471.       3471.       3473.       3473.       3473.       3474.    
        3474.       3474.       3475.       3475.       3475.       3476.       3476.       3476.       3477.       3477.    
        3477.       3477.       3477.       3477.       3473.       3473.       3473.       3474.       3474.       3474.    
        3476.       3476.       3476.       3475.       3475.       3475.       3474.       3474.       3474.       3471.    
        3471.       3471.       3471.       3471.       3471.       3471.       3472.       3472.       3472.       3474.    
        3474.       3474.       3475.       3475.       3475.       3475.       3475.       3475.       3478.       3478.    
        3478.       3479.       3479.       3479.       3481.       3481.       3481.       3482.       3482.       3482.    
        3483.       3483.       3483.       3485.       3485.       3486.       3486.       3485.       3485.       3486.    
        3487.       3487.       3489.       3489.       3490.       3493.       3493.       3494.       3495.       3494.    
        3492.       3492.       3492.       3494.       3497.       3498.    
  18    3459.       3457.       3458.       3449.       3449.       3450.       3448.       3449.       3450.       3450.    
        3446.       3446.       3449.       3452.       3454.       3454.       3454.       3454.       3454.       3454.    
        3454.       3454.       3454.       3453.       3453.       3453.       3451.       3451.       3451.       3450.    
        3450.       3450.       3451.       3451.       3451.       3454.       3454.       3454.       3457.       3457.    
        3457.       3458.       3458.       3458.       3458.       3458.       3458.       3458.       3458.       3458.    
        3462.       3462.       3462.       3465.       3465.       3465.       3469.       3469.       3469.       3467.    
        3467.       3467.       3467.       3467.       3467.       3469.       3469.       3469.       3470.       3470.    
        3470.       3469.       3469.       3469.       3469.       3468.       3468.       3468.       3471.       3471.    
        3471.       3472.       3472.       3472.       3471.       3471.       3471.       3469.       3469.       3469.    
        3468.       3468.       3468.       3470.       3470.       3470.       3470.       3470.       3470.       3470.    
        3470.       3470.       3471.       3471.       3471.       3474.       3474.       3474.       3474.       3474.    
        3474.       3474.       3474.       3474.       3473.       3473.       3473.       3466.       3466.       3466.    
        3468.       3468.       3468.       3471.       3471.       3471.       3472.       3472.       3472.       3472.    
        3472.       3472.       3472.       3473.       3473.       3473.       3474.       3474.       3474.       3478.    
        3478.       3478.       3481.       3481.       3481.       3481.       3481.       3481.       3480.       3480.    
        3480.       3481.       3481.       3481.       3482.       3482.       3482.       3484.       3484.       3484.    
        3486.       3486.       3486.       3489.       3489.       3490.       3490.       3489.       3488.       3487.    
        3488.       3488.       3490.       3489.       3488.       3490.       3490.       3493.       3494.       3494.    
        3492.       3491.       3491.       3492.       3495.       3498.    
  19    3462.       3461.       3459.       3452.       3452.       3454.       3458.       3453.       3453.       3453.    
        3447.       3448.       3450.       3452.       3454.       3454.       3456.       3456.       3456.       3457.    
        3457.       3457.       3457.       3456.       3456.       3456.       3455.       3455.       3455.       3453.    
        3453.       3453.       3452.       3452.       3452.       3454.       3454.       3454.       3455.       3455.    
        3455.       3456.       3456.       3456.       3454.       3454.       3454.       3454.       3454.       3454.    
        3455.       3455.       3455.       3460.       3460.       3460.       3463.       3463.       3463.       3463.    
        3463.       3463.       3464.       3464.       3464.       3466.       3466.       3466.       3467.       3467.    
        3467.       3466.       3466.       3466.       3466.       3466.       3466.       3466.       3467.       3467.    
        3467.       3470.       3470.       3470.       3469.       3469.       3469.       3468.       3468.       3468.    
        3468.       3468.       3468.       3469.       3469.       3469.       3470.       3470.       3470.       3470.    
        3470.       3470.       3472.       3472.       3472.       3473.       3473.       3473.       3474.       3474.    
        3474.       3472.       3472.       3472.       3468.       3468.       3468.       3466.       3466.       3466.    
        3464.       3464.       3464.       3469.       3469.       3469.       3471.       3471.       3471.       3473.    
        3473.       3473.       3473.       3475.       3475.       3475.       3476.       3476.       3476.       3477.    
        3477.       3477.       3480.       3480.       3480.       3482.       3482.       3482.       3482.       3482.    
        3482.       3482.       3482.       3482.       3483.       3483.       3483.       3484.       3484.       3484.    
        3486.       3486.       3486.       3490.       3490.       3492.       3492.       3492.       3490.       3489.    
        3488.       3488.       3488.       3488.       3488.       3490.       3490.       3490.       3493.       3494.    
        3493.       3494.       3494.       3498.       3500.       3502.    
  20    3463.       3462.       3458.       3453.       3453.       3456.       3458.       3454.       3454.       3454.    
        3451.       3449.       3447.       3449.       3452.       3452.       3454.       3454.       3454.       3453.    
        3453.       3453.       3453.       3453.       3453.       3453.       3454.       3454.       3454.       3454.    
        3454.       3454.       3454.       3454.       3454.       3454.       3454.       3454.       3454.       3454.    
        3454.       3454.       3454.       3454.       3455.       3455.       3455.       3454.       3454.       3454.    
        3454.       3454.       3454.       3456.       3456.       3456.       3458.       3458.       3458.       3458.    
        3458.       3458.       3458.       3458.       3458.       3460.       3460.       3460.       3462.       3462.    
        3462.       3462.       3462.       3462.       3462.       3463.       3463.       3463.       3465.       3465.    
        3465.       3468.       3468.       3468.       3468.       3468.       3468.       3466.       3466.       3466.    
        3467.       3467.       3467.       3468.       3468.       3468.       3468.       3468.       3468.       3469.    
        3469.       3469.       3472.       3472.       3472.       3474.       3474.       3474.       3475.       3475.    
        3475.       3471.       3471.       3471.       3466.       3466.       3466.       3463.       3463.       3463.    
        3464.       3464.       3464.       3471.       3471.       3471.       3473.       3473.       3473.       3474.    
        3474.       3474.       3474.       3477.       3477.       3477.       3477.       3477.       3477.       3477.    
        3477.       3477.       3479.       3479.       3479.       3482.       3482.       3482.       3484.       3484.    
        3484.       3484.       3484.       3484.       3483.       3483.       3483.       3485.       3485.       3485.    
        3486.       3486.       3486.       3490.       3490.       3492.       3492.       3493.       3490.       3489.    
        3488.       3488.       3489.       3487.       3489.       3490.       3490.       3493.       3496.       3496.    
        3497.       3499.       3499.       3502.       3501.       3502.    
  21    3464.       3464.       3460.       3453.       3453.       3455.       3454.       3454.       3454.       3454.    
        3453.       3449.       3446.       3447.       3448.       3448.       3450.       3450.       3450.       3450.    
        3450.       3450.       3450.       3450.       3450.       3450.       3452.       3452.       3452.       3454.    
        3454.       3454.       3454.       3454.       3454.       3453.       3453.       3453.       3453.       3453.    
        3453.       3454.       3454.       3454.       3455.       3455.       3455.       3458.       3458.       3458.    
        3456.       3456.       3456.       3456.       3456.       3456.       3456.       3456.       3456.       3456.    
        3456.       3456.       3455.       3455.       3455.       3456.       3456.       3456.       3457.       3457.    
        3457.       3458.       3458.       3458.       3458.       3459.       3459.       3459.       3462.       3462.    
        3462.       3465.       3465.       3465.       3467.       3467.       3467.       3467.       3467.       3467.    
        3468.       3468.       3468.       3468.       3468.       3468.       3466.       3466.       3466.       3468.    
        3468.       3468.       3471.       3471.       3471.       3472.       3472.       3472.       3472.       3472.    
        3472.       3470.       3470.       3470.       3467.       3467.       3467.       3465.       3465.       3465.    
        3466.       3466.       3466.       3471.       3471.       3471.       3474.       3474.       3474.       3476.    
        3476.       3476.       3476.       3478.       3478.       3478.       3480.       3480.       3480.       3481.    
        3481.       3481.       3481.       3481.       3481.       3482.       3482.       3482.       3484.       3484.    
        3484.       3485.       3485.       3485.       3486.       3486.       3486.       3487.       3487.       3487.    
        3488.       3488.       3488.       3487.       3487.       3487.       3487.       3490.       3489.       3489.    
        3490.       3490.       3488.       3486.       3489.       3493.       3493.       3495.       3496.       3496.    
        3498.       3498.       3498.       3499.       3499.       3500.    
  22    3464.       3464.       3460.       3453.       3453.       3455.       3454.       3454.       3454.       3454.    
        3453.       3449.       3446.       3447.       3448.       3448.       3450.       3450.       3450.       3450.    
        3450.       3450.       3450.       3450.       3450.       3450.       3452.       3452.       3452.       3454.    
        3454.       3454.       3454.       3454.       3454.       3453.       3453.       3453.       3453.       3453.    
        3453.       3454.       3454.       3454.       3455.       3455.       3455.       3458.       3458.       3458.    
        3456.       3456.       3456.       3456.       3456.       3456.       3456.       3456.       3456.       3456.    
        3456.       3456.       3455.       3455.       3455.       3456.       3456.       3456.       3457.       3457.    
        3457.       3458.       3458.       3458.       3458.       3459.       3459.       3459.       3462.       3462.    
        3462.       3465.       3465.       3465.       3467.       3467.       3467.       3467.       3467.       3467.    
        3468.       3468.       3468.       3468.       3468.       3468.       3466.       3466.       3465.       3468.    
        3468.       3468.       3471.       3471.       3471.       3472.       3472.       3472.       3472.       3472.    
        3472.       3470.       3470.       3470.       3467.       3467.       3467.       3465.       3465.       3465.    
        3466.       3466.       3466.       3471.       3471.       3471.       3474.       3474.       3474.       3476.    
        3476.       3476.       3476.       3478.       3478.       3478.       3480.       3480.       3480.       3481.    
        3481.       3481.       3481.       3481.       3481.       3482.       3482.       3482.       3484.       3484.    
        3484.       3485.       3485.       3485.       3486.       3486.       3486.       3485.       3487.       3487.    
        3488.       3488.       3488.       3487.       3487.       3487.       3487.       3490.       3489.       3489.    
        3490.       3490.       3488.       3486.       3489.       3493.       3493.       3495.       3496.       3496.    
        3498.       3498.       3498.       3499.       3499.       3500.    
  23    3465.       3462.       3454.       3452.       3452.       3451.       3453.       3454.       3453.       3453.    
        3452.       3449.       3448.       3449.       3448.       3448.       3450.       3450.       3450.       3450.    
        3450.       3450.       3450.       3451.       3451.       3451.       3453.       3453.       3453.       3454.    
        3454.       3454.       3455.       3455.       3455.       3455.       3455.       3455.       3454.       3454.    
        3454.       3454.       3454.       3454.       3456.       3456.       3456.       3457.       3457.       3457.    
        3456.       3456.       3456.       3457.       3457.       3457.       3458.       3458.       3458.       3458.    
        3458.       3458.       3458.       3458.       3458.       3457.       3457.       3457.       3457.       3457.    
        3457.       3456.       3456.       3456.       3456.       3458.       3458.       3458.       3459.       3459.    
        3459.       3462.       3462.       3462.       3463.       3463.       3463.       3462.       3462.       3462.    
        3464.       3464.       3464.       3465.       3465.       3465.       3465.       3465.       3465.       3465.    
        3465.       3465.       3465.       3465.       3465.       3466.       3466.       3466.       3466.       3466.    
        3466.       3466.       3466.       3466.       3467.       3467.       3467.       3469.       3469.       3469.    
        3471.       3471.       3471.       3474.       3474.       3474.       3474.       3474.       3474.       3476.    
        3476.       3476.       3476.       3478.       3478.       3478.       3478.       3478.       3478.       3479.    
        3479.       3479.       3479.       3479.       3479.       3479.       3479.       3479.       3481.       3481.    
        3481.       3481.       3481.       3481.       3482.       3482.       3482.       3485.       3485.       3485.    
        3486.       3486.       3486.       3486.       3486.       3487.       3487.       3488.       3488.       3490.    
        3491.       3491.       3490.       3490.       3490.       3493.       3493.       3494.       3496.       3496.    
        3497.       3497.       3497.       3497.       3498.       3499.    
  24    3463.       3461.       3454.       3452.       3452.       3450.       3450.       3454.       3452.       3452.    
        3450.       3450.       3452.       3451.       3452.       3452.       3453.       3453.       3453.       3454.    
        3454.       3454.       3454.       3454.       3454.       3454.       3455.       3455.       3455.       3457.    
        3457.       3457.       3458.       3458.       3458.       3459.       3459.       3459.       3458.       3458.    
        3458.       3458.       3458.       3458.       3458.       3458.       3458.       3458.       3458.       3458.    
        3458.       3458.       3458.       3458.       3458.       3458.       3459.       3459.       3459.       3461.    
        3461.       3461.       3461.       3461.       3461.       3462.       3462.       3462.       3462.       3462.    
        3462.       3461.       3461.       3461.       3461.       3461.       3461.       3461.       3462.       3462.    
        3462.       3462.       3462.       3462.       3462.       3462.       3462.       3462.       3462.       3462.    
        3462.       3462.       3462.       3464.       3464.       3464.       3466.       3466.       3466.       3466.    
        3466.       3466.       3466.       3466.       3466.       3466.       3466.       3466.       3468.       3468.    
        3468.       3468.       3468.       3468.       3470.       3470.       3470.       3472.       3472.       3472.    
        3474.       3474.       3474.       3474.       3474.       3474.       3475.       3475.       3475.       3475.    
        3475.       3475.       3475.       3477.       3477.       3477.       3479.       3479.       3479.       3480.    
        3480.       3480.       3482.       3482.       3482.       3483.       3483.       3483.       3485.       3485.    
        3485.       3486.       3486.       3486.       3487.       3487.       3487.       3487.       3487.       3487.    
        3486.       3486.       3486.       3486.       3486.       3486.       3486.       3488.       3490.       3491.    
        3493.       3493.       3494.       3494.       3494.       3493.       3493.       3494.       3495.       3497.    
        3495.       3495.       3495.       3497.       3498.       3499.    
  25    3460.       3458.       3453.       3449.       3449.       3450.       3450.       3455.       3453.       3453.    
        3451.       3450.       3452.       3453.       3454.       3454.       3456.       3456.       3456.       3455.    
        3455.       3455.       3455.       3456.       3456.       3456.       3458.       3458.       3458.       3459.    
        3459.       3459.       3459.       3459.       3459.       3459.       3459.       3459.       3459.       3459.    
        3459.       3458.       3458.       3458.       3458.       3458.       3458.       3458.       3458.       3458.    
        3459.       3459.       3459.       3461.       3461.       3461.       3462.       3462.       3462.       3464.    
        3464.       3464.       3465.       3465.       3465.       3465.       3465.       3465.       3466.       3466.    
        3466.       3466.       3466.       3466.       3466.       3466.       3466.       3466.       3465.       3465.    
        3465.       3463.       3463.       3463.       3464.       3464.       3464.       3466.       3466.       3466.    
        3466.       3466.       3466.       3466.       3466.       3466.       3467.       3467.       3467.       3469.    
        3469.       3469.       3471.       3471.       3471.       3472.       3472.       3472.       3474.       3474.    
        3474.       3474.       3474.       3474.       3473.       3473.       3473.       3473.       3473.       3473.    
        3473.       3473.       3473.       3473.       3473.       3473.       3474.       3474.       3474.       3475.    
        3475.       3475.       3475.       3478.       3478.       3478.       3480.       3480.       3480.       3481.    
        3481.       3481.       3483.       3483.       3483.       3485.       3485.       3485.       3488.       3488.    
        3488.       3491.       3491.       3491.       3494.       3494.       3494.       3494.       3494.       3494.    
        3490.       3490.       3490.       3487.       3487.       3488.       3488.       3490.       3491.       3491.    
        3492.       3492.       3494.       3497.       3496.       3497.       3497.       3497.       3497.       3498.    
        3500.       3500.       3500.       3499.       3499.       3501.    
  26    3458.       3454.       3451.       3450.       3450.       3451.       3452.       3454.       3454.       3454.    
        3453.       3452.       3451.       3452.       3454.       3454.       3456.       3456.       3456.       3454.    
        3454.       3454.       3454.       3454.       3454.       3454.       3457.       3457.       3457.       3459.    
        3459.       3459.       3460.       3460.       3460.       3458.       3458.       3458.       3458.       3458.    
        3458.       3458.       3458.       3458.       3458.       3458.       3458.       3458.       3458.       3458.    
        3460.       3460.       3460.       3462.       3462.       3462.       3460.       3460.       3460.       3461.    
        3461.       3461.       3462.       3462.       3462.       3463.       3463.       3463.       3464.       3464.    
        3464.       3466.       3466.       3466.       3466.       3467.       3467.       3467.       3466.       3466.    
        3466.       3466.       3466.       3466.       3466.       3466.       3466.       3466.       3466.       3466.    
        3465.       3465.       3465.       3465.       3465.       3465.       3466.       3466.       3466.       3466.    
        3466.       3466.       3469.       3469.       3469.       3470.       3470.       3470.       3472.       3472.    
        3472.       3474.       3474.       3474.       3474.       3474.       3474.       3474.       3474.       3474.    
        3474.       3474.       3474.       3473.       3473.       3473.       3474.       3474.       3474.       3477.    
        3477.       3477.       3477.       3478.       3478.       3478.       3482.       3482.       3482.       3482.    
        3482.       3482.       3483.       3483.       3483.       3485.       3485.       3485.       3486.       3486.    
        3486.       3489.       3489.       3489.       3493.       3493.       3493.       3494.       3494.       3494.    
        3494.       3494.       3494.       3493.       3493.       3492.       3492.       3493.       3493.       3491.    
        3491.       3491.       3495.       3497.       3497.       3496.       3496.       3498.       3498.       3497.    
        3498.       3500.       3500.       3501.       3501.       3502.    
  27    3458.       3454.       3451.       3450.       3450.       3451.       3452.       3454.       3454.       3454.    
        3453.       3452.       3451.       3452.       3454.       3454.       3456.       3456.       3456.       3454.    
        3454.       3454.       3454.       3454.       3454.       3454.       3457.       3457.       3457.       3459.    
        3459.       3459.       3460.       3460.       3460.       3458.       3458.       3458.       3458.       3458.    
        3458.       3458.       3458.       3458.       3458.       3458.       3458.       3458.       3458.       3458.    
        3460.       3460.       3460.       3462.       3462.       3462.       3460.       3460.       3460.       3461.    
        3461.       3461.       3462.       3462.       3462.       3463.       3463.       3463.       3464.       3464.    
        3464.       3466.       3466.       3466.       3466.       3467.       3467.       3467.       3466.       3466.    
        3466.       3466.       3466.       3466.       3466.       3466.       3466.       3466.       3466.       3466.    
        3465.       3465.       3465.       3465.       3465.       3465.       3466.       3466.       3466.       3466.    
        3466.       3466.       3469.       3469.       3469.       3470.       3470.       3470.       3472.       3472.    
        3472.       3474.       3474.       3474.       3474.       3474.       3474.       3474.       3474.       3474.    
        3474.       3474.       3474.       3473.       3473.       3473.       3474.       3474.       3474.       3477.    
        3477.       3477.       3477.       3478.       3478.       3478.       3482.       3482.       3482.       3482.    
        3482.       3482.       3483.       3483.       3483.       3485.       3485.       3485.       3486.       3486.    
        3486.       3489.       3489.       3489.       3493.       3493.       3493.       3494.       3494.       3494.    
        3494.       3494.       3494.       3493.       3493.       3492.       3492.       3493.       3493.       3491.    
        3491.       3491.       3495.       3497.       3497.       3496.       3496.       3498.       3498.       3497.    
        3498.       3500.       3500.       3501.       3501.       3502.    
  28    3456.       3454.       3453.       3451.       3451.       3453.       3453.       3452.       3452.       3452.    
        3451.       3453.       3455.       3456.       3458.       3458.       3458.       3458.       3458.       3457.    
        3457.       3457.       3457.       3456.       3456.       3456.       3458.       3458.       3458.       3460.    
        3460.       3460.       3460.       3460.       3460.       3459.       3459.       3459.       3461.       3461.    
        3461.       3460.       3460.       3460.       3458.       3458.       3458.       3460.       3460.       3460.    
        3461.       3461.       3461.       3462.       3462.       3462.       3461.       3461.       3461.       3461.    
        3461.       3461.       3462.       3462.       3462.       3464.       3464.       3464.       3464.       3464.    
        3464.       3464.       3464.       3464.       3464.       3464.       3464.       3464.       3465.       3465.    
        3465.       3466.       3466.       3466.       3467.       3467.       3467.       3468.       3468.       3468.    
        3467.       3467.       3467.       3467.       3467.       3467.       3468.       3468.       3468.       3468.    
        3468.       3468.       3469.       3469.       3469.       3470.       3470.       3470.       3470.       3470.    
        3470.       3472.       3472.       3472.       3474.       3474.       3474.       3474.       3474.       3474.    
        3473.       3473.       3473.       3473.       3473.       3473.       3476.       3476.       3476.       3478.    
        3478.       3478.       3478.       3480.       3480.       3480.       3482.       3482.       3482.       3484.    
        3484.       3484.       3485.       3485.       3485.       3485.       3485.       3485.       3486.       3486.    
        3486.       3488.       3488.       3488.       3490.       3490.       3490.       3493.       3493.       3493.    
        3494.       3494.       3494.       3494.       3494.       3491.       3491.       3493.       3494.       3494.    
        3494.       3494.       3496.       3497.       3496.       3494.       3494.       3496.       3498.       3497.    
        3497.       3496.       3496.       3498.       3498.       3499.    
  29    3456.       3454.       3453.       3451.       3451.       3453.       3453.       3452.       3452.       3452.    
        3451.       3453.       3455.       3456.       3458.       3458.       3458.       3458.       3458.       3457.    
        3457.       3457.       3457.       3456.       3456.       3456.       3458.       3458.       3458.       3460.    
        3460.       3460.       3460.       3460.       3460.       3459.       3459.       3459.       3461.       3461.    
        3461.       3460.       3460.       3460.       3458.       3458.       3458.       3460.       3460.       3460.    
        3461.       3461.       3461.       3462.       3462.       3462.       3461.       3461.       3461.       3461.    
        3461.       3461.       3462.       3462.       3462.       3464.       3464.       3464.       3464.       3464.    
        3464.       3464.       3464.       3464.       3464.       3464.       3464.       3464.       3465.       3465.    
        3465.       3466.       3466.       3466.       3467.       3467.       3467.       3468.       3468.       3468.    
        3467.       3467.       3467.       3467.       3467.       3467.       3468.       3468.       3468.       3468.    
        3468.       3468.       3469.       3469.       3469.       3470.       3470.       3470.       3470.       3470.    
        3470.       3472.       3472.       3472.       3474.       3474.       3474.       3474.       3474.       3474.    
        3473.       3473.       3473.       3473.       3473.       3473.       3476.       3476.       3476.       3478.    
        3478.       3478.       3478.       3480.       3480.       3480.       3482.       3482.       3482.       3484.    
        3484.       3484.       3485.       3485.       3485.       3485.       3485.       3485.       3486.       3486.    
        3486.       3488.       3488.       3488.       3490.       3490.       3490.       3493.       3493.       3493.    
        3494.       3494.       3494.       3494.       3494.       3491.       3491.       3493.       3494.       3494.    
        3494.       3494.       3496.       3497.       3496.       3494.       3494.       3496.       3498.       3497.    
        3497.       3496.       3496.       3498.       3498.       3499.    
  30    3456.       3454.       3453.       3451.       3451.       3453.       3453.       3452.       3452.       3452.    
        3451.       3453.       3455.       3456.       3458.       3458.       3458.       3458.       3458.       3457.    
        3457.       3457.       3457.       3456.       3456.       3456.       3458.       3458.       3458.       3460.    
        3460.       3460.       3460.       3460.       3460.       3459.       3459.       3459.       3461.       3461.    
        3461.       3460.       3460.       3460.       3458.       3458.       3458.       3460.       3460.       3460.    
        3461.       3461.       3461.       3462.       3462.       3462.       3461.       3461.       3461.       3461.    
        3461.       3461.       3462.       3462.       3462.       3464.       3464.       3464.       3464.       3464.    
        3464.       3464.       3464.       3464.       3464.       3464.       3464.       3464.       3465.       3465.    
        3465.       3466.       3466.       3466.       3467.       3467.       3467.       3468.       3468.       3468.    
        3467.       3467.       3467.       3467.       3467.       3467.       3468.       3468.       3468.       3468.    
        3468.       3468.       3469.       3469.       3469.       3470.       3470.       3470.       3470.       3470.    
        3470.       3472.       3472.       3472.       3474.       3474.       3474.       3474.       3474.       3474.    
        3473.       3473.       3473.       3473.       3473.       3473.       3476.       3476.       3476.       3478.    
        3478.       3478.       3478.       3480.       3480.       3480.       3482.       3482.       3482.       3484.    
        3484.       3484.       3485.       3485.       3485.       3485.       3485.       3485.       3486.       3486.    
        3486.       3488.       3488.       3488.       3490.       3490.       3490.       3493.       3493.       3493.    
        3494.       3494.       3494.       3494.       3494.       3491.       3491.       3493.       3494.       3494.    
        3494.       3494.       3496.       3497.       3496.       3494.       3494.       3496.       3498.       3497.    
        3497.       3496.       3496.       3498.       3498.       3499.    
  31    3458.       3456.       3455.       3454.       3454.       3454.       3453.       3453.       3450.       3450.    
        3450.       3452.       3458.       3461.       3460.       3460.       3458.       3458.       3458.       3458.    
        3458.       3458.       3458.       3458.       3458.       3458.       3462.       3462.       3462.       3462.    
        3462.       3462.       3460.       3460.       3460.       3459.       3459.       3459.       3460.       3460.    
        3460.       3459.       3459.       3459.       3459.       3459.       3459.       3462.       3462.       3462.    
        3463.       3463.       3463.       3462.       3462.       3462.       3462.       3462.       3462.       3462.    
        3462.       3462.       3462.       3462.       3462.       3464.       3464.       3464.       3465.       3465.    
        3465.       3466.       3466.       3466.       3466.       3466.       3466.       3466.       3466.       3466.    
        3466.       3466.       3466.       3466.       3468.       3468.       3468.       3469.       3469.       3469.    
        3469.       3469.       3469.       3469.       3469.       3469.       3470.       3470.       3470.       3470.    
        3470.       3470.       3470.       3470.       3470.       3469.       3469.       3469.       3470.       3470.    
        3470.       3473.       3473.       3473.       3474.       3474.       3474.       3473.       3473.       3473.    
        3474.       3474.       3474.       3476.       3476.       3476.       3478.       3478.       3478.       3478.    
        3478.       3478.       3478.       3478.       3478.       3478.       3481.       3481.       3481.       3484.    
        3484.       3484.       3484.       3484.       3484.       3483.       3483.       3483.       3484.       3484.    
        3484.       3486.       3486.       3486.       3490.       3490.       3490.       3493.       3493.       3493.    
        3493.       3493.       3493.       3491.       3491.       3491.       3491.       3492.       3494.       3496.    
        3497.       3497.       3495.       3495.       3495.       3495.       3495.       3496.       3498.       3498.    
        3498.       3499.       3499.       3500.       3500.       3499.    
  32    3458.       3456.       3455.       3454.       3454.       3454.       3453.       3453.       3450.       3450.    
        3450.       3452.       3458.       3461.       3460.       3460.       3458.       3458.       3458.       3458.    
        3458.       3458.       3458.       3458.       3458.       3458.       3462.       3462.       3462.       3462.    
        3462.       3462.       3460.       3460.       3460.       3459.       3459.       3459.       3460.       3460.    
        3460.       3459.       3459.       3459.       3459.       3459.       3459.       3462.       3462.       3462.    
        3463.       3463.       3463.       3462.       3462.       3462.       3462.       3462.       3462.       3462.    
        3462.       3462.       3462.       3462.       3462.       3464.       3464.       3464.       3465.       3465.    
        3465.       3466.       3466.       3466.       3466.       3466.       3466.       3466.       3466.       3466.    
        3466.       3466.       3466.       3466.       3468.       3468.       3468.       3469.       3469.       3469.    
        3469.       3469.       3469.       3469.       3469.       3469.       3470.       3470.       3470.       3470.    
        3470.       3470.       3470.       3470.       3470.       3469.       3469.       3469.       3470.       3470.    
        3470.       3473.       3473.       3473.       3474.       3474.       3474.       3473.       3473.       3473.    
        3474.       3474.       3474.       3476.       3476.       3476.       3478.       3478.       3478.       3478.    
        3478.       3478.       3478.       3478.       3478.       3478.       3481.       3481.       3481.       3484.    
        3484.       3484.       3484.       3484.       3484.       3483.       3483.       3483.       3484.       3484.    
        3484.       3486.       3486.       3486.       3490.       3490.       3490.       3493.       3493.       3493.    
        3493.       3493.       3493.       3491.       3491.       3491.       3491.       3492.       3494.       3496.    
        3497.       3497.       3495.       3495.       3495.       3495.       3495.       3496.       3498.       3498.    
        3498.       3499.       3499.       3500.       3500.       3499.    
  33    3458.       3456.       3455.       3454.       3454.       3454.       3453.       3453.       3450.       3450.    
        3450.       3452.       3458.       3461.       3460.       3460.       3458.       3458.       3458.       3458.    
        3458.       3458.       3458.       3458.       3458.       3458.       3462.       3462.       3462.       3462.    
        3462.       3462.       3460.       3460.       3460.       3459.       3459.       3459.       3460.       3460.    
        3460.       3459.       3459.       3459.       3459.       3459.       3459.       3462.       3462.       3462.    
        3463.       3463.       3463.       3462.       3462.       3462.       3462.       3462.       3462.       3462.    
        3462.       3462.       3462.       3462.       3462.       3464.       3464.       3464.       3465.       3465.    
        3465.       3466.       3466.       3466.       3466.       3466.       3466.       3466.       3466.       3466.    
        3466.       3466.       3466.       3466.       3468.       3468.       3468.       3469.       3469.       3469.    
        3469.       3469.       3469.       3469.       3469.       3469.       3470.       3470.       3470.       3470.    
        3470.       3470.       3470.       3470.       3470.       3469.       3469.       3469.       3470.       3470.    
        3470.       3473.       3473.       3473.       3474.       3474.       3474.       3473.       3473.       3473.    
        3474.       3474.       3474.       3476.       3476.       3476.       3478.       3478.       3478.       3478.    
        3478.       3478.       3478.       3478.       3478.       3478.       3481.       3481.       3481.       3484.    
        3484.       3484.       3484.       3484.       3484.       3483.       3483.       3483.       3484.       3484.    
        3484.       3486.       3486.       3486.       3490.       3490.       3490.       3493.       3493.       3493.    
        3493.       3493.       3493.       3491.       3491.       3491.       3491.       3492.       3494.       3496.    
        3497.       3497.       3495.       3495.       3495.       3495.       3495.       3496.       3498.       3498.    
        3498.       3499.       3499.       3500.       3500.       3499.    
  34    3463.       3458.       3457.       3454.       3454.       3454.       3454.       3450.       3450.       3450.    
        3449.       3451.       3455.       3458.       3458.       3458.       3458.       3458.       3458.       3455.    
        3455.       3455.       3455.       3455.       3455.       3455.       3460.       3460.       3460.       3462.    
        3462.       3462.       3460.       3460.       3460.       3459.       3459.       3459.       3462.       3462.    
        3462.       3463.       3463.       3463.       3462.       3462.       3462.       3461.       3461.       3461.    
        3462.       3462.       3462.       3463.       3463.       3463.       3462.       3462.       3462.       3463.    
        3463.       3463.       3465.       3465.       3465.       3466.       3466.       3466.       3469.       3469.    
        3469.       3468.       3468.       3468.       3468.       3469.       3469.       3469.       3469.       3469.    
        3469.       3469.       3469.       3469.       3468.       3468.       3468.       3469.       3469.       3469.    
        3470.       3470.       3470.       3470.       3470.       3470.       3471.       3471.       3471.       3472.    
        3472.       3472.       3472.       3472.       3472.       3473.       3473.       3473.       3474.       3474.    
        3474.       3477.       3477.       3477.       3477.       3477.       3477.       3477.       3477.       3477.    
        3478.       3478.       3478.       3480.       3480.       3480.       3479.       3479.       3479.       3476.    
        3476.       3476.       3476.       3476.       3476.       3476.       3479.       3479.       3479.       3483.    
        3483.       3483.       3484.       3484.       3484.       3484.       3484.       3484.       3485.       3485.    
        3485.       3484.       3484.       3484.       3485.       3485.       3485.       3488.       3488.       3488.    
        3490.       3490.       3490.       3491.       3491.       3492.       3492.       3494.       3495.       3495.    
        3497.       3497.       3497.       3497.       3496.       3497.       3497.       3501.       3502.       3501.    
        3500.       3501.       3501.       3502.       3502.       3502.    
  35    3463.       3458.       3457.       3454.       3454.       3454.       3454.       3450.       3450.       3450.    
        3449.       3451.       3455.       3458.       3458.       3458.       3458.       3458.       3458.       3455.    
        3455.       3455.       3455.       3455.       3455.       3455.       3460.       3460.       3460.       3462.    
        3462.       3462.       3460.       3460.       3460.       3459.       3459.       3459.       3462.       3462.    
        3462.       3463.       3463.       3463.       3462.       3462.       3462.       3461.       3461.       3461.    
        3462.       3462.       3462.       3463.       3463.       3463.       3462.       3462.       3462.       3463.    
        3463.       3463.       3465.       3465.       3465.       3466.       3466.       3466.       3469.       3469.    
        3469.       3468.       3468.       3468.       3468.       3469.       3469.       3469.       3469.       3469.    
        3469.       3469.       3469.       3469.       3468.       3468.       3468.       3469.       3469.       3469.    
        3470.       3470.       3470.       3470.       3470.       3470.       3471.       3471.       3471.       3472.    
        3472.       3472.       3472.       3472.       3472.       3473.       3473.       3473.       3474.       3474.    
        3474.       3477.       3477.       3477.       3477.       3477.       3477.       3477.       3477.       3477.    
        3478.       3478.       3478.       3480.       3480.       3480.       3479.       3479.       3479.       3476.    
        3476.       3476.       3476.       3476.       3476.       3476.       3479.       3479.       3479.       3483.    
        3483.       3483.       3484.       3484.       3484.       3484.       3484.       3484.       3485.       3485.    
        3485.       3484.       3484.       3484.       3485.       3485.       3485.       3488.       3488.       3488.    
        3490.       3490.       3490.       3491.       3491.       3492.       3492.       3494.       3495.       3495.    
        3497.       3497.       3497.       3497.       3496.       3497.       3497.       3501.       3502.       3501.    
        3500.       3501.       3501.       3502.       3502.       3502.    
  36    3463.       3458.       3457.       3454.       3454.       3454.       3454.       3450.       3450.       3450.    
        3449.       3451.       3455.       3458.       3458.       3458.       3458.       3458.       3458.       3455.    
        3455.       3455.       3455.       3455.       3455.       3455.       3460.       3460.       3460.       3462.    
        3462.       3462.       3460.       3460.       3460.       3459.       3459.       3459.       3462.       3462.    
        3462.       3463.       3463.       3463.       3462.       3462.       3462.       3461.       3461.       3461.    
        3462.       3462.       3462.       3463.       3463.       3463.       3462.       3462.       3462.       3463.    
        3463.       3463.       3465.       3465.       3465.       3466.       3466.       3466.       3469.       3469.    
        3469.       3468.       3468.       3468.       3468.       3469.       3469.       3469.       3469.       3469.    
        3469.       3469.       3469.       3469.       3468.       3468.       3468.       3469.       3469.       3469.    
        3470.       3470.       3470.       3470.       3470.       3470.       3471.       3471.       3471.       3472.    
        3472.       3472.       3472.       3472.       3472.       3473.       3473.       3473.       3474.       3474.    
        3474.       3477.       3477.       3477.       3477.       3477.       3477.       3477.       3477.       3477.    
        3478.       3478.       3478.       3480.       3480.       3480.       3479.       3479.       3479.       3479.    
        3476.       3476.       3476.       3476.       3476.       3476.       3479.       3479.       3479.       3483.    
        3483.       3483.       3484.       3484.       3484.       3484.       3484.       3484.       3485.       3485.    
        3485.       3484.       3484.       3484.       3485.       3485.       3485.       3488.       3488.       3488.    
        3490.       3490.       3490.       3491.       3491.       3492.       3492.       3494.       3495.       3495.    
        3497.       3497.       3497.       3497.       3496.       3497.       3497.       3501.       3502.       3501.    
        3500.       3501.       3501.       3502.       3502.       3502.    
  37    3467.       3463.       3458.       3457.       3457.       3457.       3455.       3453.       3452.       3452.    
        3450.       3450.       3454.       3455.       3455.       3455.       3457.       3457.       3457.       3454.    
        3454.       3454.       3454.       3453.       3453.       3453.       3455.       3455.       3455.       3457.    
        3457.       3457.       3458.       3458.       3458.       3458.       3458.       3458.       3460.       3460.    
        3460.       3462.       3462.       3462.       3461.       3461.       3461.       3462.       3462.       3462.    
        3463.       3463.       3463.       3464.       3464.       3464.       3466.       3466.       3466.       3466.    
        3466.       3466.       3468.       3468.       3468.       3469.       3469.       3469.       3470.       3470.    
        3470.       3469.       3469.       3469.       3469.       3469.       3469.       3469.       3469.       3469.    
        3469.       3470.       3470.       3470.       3470.       3470.       3470.       3470.       3470.       3470.    
        3471.       3471.       3471.       3472.       3472.       3472.       3473.       3473.       3473.       3474.    
        3474.       3474.       3474.       3474.       3474.       3474.       3474.       3474.       3474.       3474.    
        3474.       3475.       3475.       3475.       3476.       3476.       3476.       3477.       3477.       3477.    
        3478.       3478.       3478.       3480.       3480.       3480.       3481.       3481.       3481.       3480.    
        3480.       3480.       3480.       3479.       3479.       3479.       3482.       3482.       3482.       3483.    
        3483.       3483.       3484.       3484.       3484.       3484.       3484.       3484.       3484.       3484.    
        3484.       3484.       3484.       3484.       3483.       3483.       3483.       3485.       3485.       3485.    
        3486.       3486.       3486.       3490.       3490.       3493.       3493.       3492.       3492.       3494.    
        3495.       3495.       3496.       3499.       3500.       3502.       3502.       3502.       3502.       3500.    
        3499.       3501.       3501.       3501.       3502.       3504.    
  38    3467.       3463.       3458.       3457.       3457.       3457.       3455.       3453.       3452.       3452.    
        3450.       3450.       3454.       3455.       3455.       3455.       3457.       3457.       3457.       3454.    
        3454.       3454.       3454.       3453.       3453.       3453.       3455.       3455.       3455.       3457.    
        3457.       3457.       3458.       3458.       3458.       3458.       3458.       3458.       3460.       3460.    
        3460.       3462.       3462.       3462.       3461.       3461.       3461.       3462.       3462.       3462.    
        3463.       3463.       3463.       3464.       3464.       3464.       3466.       3466.       3466.       3466.    
        3466.       3466.       3468.       3468.       3468.       3469.       3469.       3469.       3470.       3470.    
        3470.       3469.       3469.       3469.       3469.       3469.       3469.       3469.       3469.       3469.    
        3469.       3470.       3470.       3470.       3470.       3470.       3470.       3470.       3470.       3470.    
        3471.       3471.       3471.       3472.       3472.       3472.       3473.       3473.       3473.       3474.    
        3474.       3474.       3474.       3474.       3474.       3474.       3474.       3474.       3474.       3474.    
        3474.       3475.       3475.       3475.       3476.       3476.       3476.       3477.       3477.       3477.    
        3478.       3478.       3478.       3480.       3480.       3480.       3481.       3481.       3481.       3480.    
        3480.       3480.       3480.       3479.       3479.       3479.       3482.       3482.       3482.       3483.    
        3483.       3483.       3484.       3484.       3484.       3484.       3484.       3484.       3484.       3484.    
        3484.       3484.       3484.       3484.       3483.       3483.       3483.       3485.       3485.       3485.    
        3486.       3486.       3486.       3490.       3490.       3493.       3493.       3492.       3492.       3494.    
        3495.       3495.       3496.       3499.       3500.       3502.       3502.       3502.       3502.       3500.    
        3499.       3501.       3501.       3501.       3502.       3504.    
  39    3467.       3463.       3458.       3457.       3457.       3457.       3455.       3453.       3452.       3452.    
        3450.       3450.       3454.       3455.       3455.       3455.       3457.       3457.       3457.       3454.    
        3454.       3454.       3454.       3453.       3453.       3453.       3455.       3455.       3455.       3457.    
        3457.       3457.       3458.       3458.       3458.       3458.       3458.       3458.       3460.       3460.    
        3460.       3462.       3462.       3462.       3461.       3461.       3461.       3462.       3462.       3462.    
        3463.       3463.       3463.       3464.       3464.       3464.       3466.       3466.       3466.       3466.    
        3466.       3466.       3468.       3468.       3468.       3469.       3469.       3469.       3470.       3470.    
        3470.       3469.       3469.       3469.       3469.       3469.       3469.       3469.       3469.       3469.    
        3469.       3470.       3470.       3470.       3470.       3470.       3470.       3470.       3470.       3470.    
        3471.       3471.       3471.       3472.       3472.       3472.       3473.       3473.       3473.       3474.    
        3474.       3474.       3474.       3474.       3474.       3474.       3474.       3474.       3474.       3474.    
        3474.       3475.       3475.       3475.       3476.       3476.       3476.       3477.       3477.       3477.    
        3478.       3478.       3478.       3480.       3480.       3480.       3481.       3481.       3481.       3480.    
        3480.       3480.       3480.       3479.       3479.       3479.       3482.       3482.       3482.       3483.    
        3483.       3483.       3484.       3484.       3484.       3484.       3484.       3484.       3484.       3484.    
        3484.       3484.       3484.       3484.       3483.       3483.       3483.       3485.       3485.       3485.    
        3486.       3486.       3486.       3490.       3490.       3493.       3493.       3492.       3492.       3494.    
        3495.       3495.       3496.       3499.       3500.       3502.       3502.       3502.       3502.       3500.    
        3499.       3501.       3501.       3501.       3502.       3504.    
  40    3474.       3470.       3463.       3458.       3458.       3458.       3457.       3457.       3452.       3452.    
        3454.       3456.       3451.       3454.       3456.       3456.       3454.       3454.       3454.       3456.    
        3456.       3456.       3456.       3452.       3452.       3452.       3452.       3452.       3452.       3454.    
        3454.       3454.       3455.       3455.       3455.       3459.       3459.       3459.       3461.       3461.    
        3461.       3462.       3462.       3462.       3461.       3461.       3461.       3461.       3461.       3461.    
        3461.       3461.       3461.       3463.       3463.       3463.       3464.       3464.       3464.       3465.    
        3465.       3465.       3465.       3465.       3465.       3466.       3466.       3466.       3465.       3465.    
        3465.       3465.       3465.       3465.       3465.       3466.       3466.       3466.       3467.       3467.    
        3467.       3467.       3467.       3467.       3467.       3467.       3467.       3468.       3468.       3468.    
        3471.       3471.       3471.       3472.       3472.       3472.       3472.       3472.       3472.       3472.    
        3472.       3472.       3474.       3474.       3474.       3473.       3473.       3473.       3473.       3473.    
        3473.       3473.       3473.       3473.       3473.       3473.       3473.       3474.       3474.       3474.    
        3475.       3475.       3475.       3477.       3477.       3477.       3478.       3478.       3478.       3478.    
        3478.       3478.       3478.       3478.       3478.       3478.       3478.       3478.       3478.       3481.    
        3481.       3481.       3483.       3483.       3483.       3485.       3485.       3485.       3485.       3485.    
        3485.       3486.       3486.       3486.       3486.       3486.       3486.       3487.       3487.       3487.    
        3489.       3489.       3489.       3492.       3492.       3492.       3492.       3492.       3494.       3496.    
        3495.       3495.       3495.       3498.       3496.       3500.       3500.       3502.       3502.       3500.    
        3498.       3499.       3499.       3500.       3502.       3503.    
  41    3474.       3470.       3463.       3458.       3458.       3458.       3457.       3457.       3452.       3452.    
        3454.       3456.       3451.       3454.       3456.       3456.       3454.       3454.       3454.       3456.    
        3456.       3456.       3456.       3452.       3452.       3452.       3452.       3452.       3452.       3454.    
        3454.       3454.       3455.       3455.       3455.       3459.       3459.       3459.       3461.       3461.    
        3461.       3462.       3462.       3462.       3461.       3461.       3461.       3461.       3461.       3461.    
        3461.       3461.       3461.       3463.       3463.       3463.       3464.       3464.       3464.       3465.    
        3465.       3465.       3465.       3465.       3465.       3466.       3466.       3466.       3465.       3465.    
        3465.       3465.       3465.       3465.       3465.       3466.       3466.       3466.       3467.       3467.    
        3467.       3467.       3467.       3467.       3467.       3467.       3467.       3468.       3468.       3468.    
        3471.       3471.       3471.       3472.       3472.       3472.       3472.       3472.       3472.       3472.    
        3472.       3472.       3474.       3474.       3474.       3473.       3473.       3473.       3473.       3473.    
        3473.       3473.       3473.       3473.       3473.       3473.       3473.       3474.       3474.       3474.    
        3475.       3475.       3475.       3477.       3477.       3477.       3478.       3478.       3478.       3478.    
        3478.       3478.       3478.       3478.       3478.       3478.       3478.       3478.       3478.       3481.    
        3481.       3481.       3483.       3483.       3483.       3485.       3485.       3485.       3485.       3485.    
        3485.       3486.       3486.       3486.       3486.       3486.       3486.       3487.       3487.       3487.    
        3489.       3489.       3489.       3492.       3492.       3492.       3492.       3492.       3494.       3496.    
        3495.       3495.       3495.       3498.       3496.       3500.       3500.       3502.       3502.       3500.    
        3498.       3499.       3499.       3500.       3502.       3503.    
  42    3474.       3470.       3463.       3458.       3458.       3458.       3457.       3457.       3452.       3452.    
        3454.       3456.       3451.       3454.       3456.       3456.       3454.       3454.       3454.       3456.    
        3456.       3456.       3456.       3452.       3452.       3452.       3452.       3452.       3452.       3454.    
        3454.       3454.       3455.       3455.       3455.       3459.       3459.       3459.       3461.       3461.    
        3461.       3462.       3462.       3462.       3461.       3461.       3461.       3461.       3461.       3461.    
        3461.       3461.       3461.       3463.       3463.       3463.       3464.       3464.       3464.       3465.    
        3465.       3465.       3465.       3465.       3465.       3466.       3466.       3466.       3465.       3465.    
        3465.       3465.       3465.       3465.       3465.       3466.       3466.       3466.       3467.       3467.    
        3467.       3467.       3467.       3467.       3467.       3467.       3467.       3468.       3468.       3468.    
        3471.       3471.       3471.       3472.       3472.       3472.       3472.       3472.       3472.       3472.    
        3472.       3472.       3474.       3474.       3474.       3473.       3473.       3473.       3473.       3473.    
        3473.       3473.       3473.       3473.       3473.       3473.       3473.       3474.       3474.       3474.    
        3475.       3475.       3475.       3477.       3477.       3477.       3478.       3478.       3478.       3478.    
        3478.       3478.       3478.       3478.       3478.       3478.       3478.       3478.       3478.       3481.    
        3481.       3481.       3483.       3483.       3483.       3485.       3485.       3485.       3485.       3485.    
        3485.       3486.       3486.       3486.       3486.       3486.       3486.       3487.       3487.       3487.    
        3489.       3489.       3489.       3492.       3492.       3492.       3492.       3492.       3494.       3496.    
        3495.       3495.       3495.       3498.       3496.       3500.       3500.       3502.       3502.       3500.    
        3498.       3499.       3499.       3500.       3502.       3503.    
  43    3474.       3470.       3463.       3458.       3458.       3458.       3457.       3457.       3452.       3452.    
        3454.       3456.       3451.       3454.       3456.       3456.       3454.       3454.       3454.       3456.    
        3456.       3456.       3456.       3452.       3452.       3452.       3452.       3452.       3452.       3454.    
        3454.       3454.       3455.       3455.       3455.       3459.       3459.       3459.       3461.       3461.    
        3461.       3462.       3462.       3462.       3461.       3461.       3461.       3461.       3461.       3461.    
        3461.       3461.       3461.       3463.       3463.       3463.       3464.       3464.       3464.       3465.    
        3465.       3465.       3465.       3465.       3465.       3466.       3466.       3466.       3465.       3465.    
        3465.       3465.       3465.       3465.       3465.       3466.       3466.       3466.       3467.       3467.    
        3467.       3467.       3467.       3467.       3467.       3467.       3467.       3468.       3468.       3468.    
        3471.       3471.       3471.       3472.       3472.       3472.       3472.       3472.       3472.       3472.    
        3472.       3472.       3474.       3474.       3474.       3473.       3473.       3473.       3473.       3473.    
        3473.       3473.       3473.       3473.       3473.       3473.       3473.       3474.       3474.       3474.    
        3475.       3475.       3475.       3477.       3477.       3477.       3478.       3478.       3478.       3478.    
        3478.       3478.       3478.       3478.       3478.       3478.       3478.       3478.       3478.       3481.    
        3481.       3481.       3483.       3483.       3483.       3485.       3485.       3485.       3485.       3485.    
        3485.       3486.       3486.       3486.       3486.       3486.       3486.       3487.       3487.       3487.    
        3489.       3489.       3489.       3492.       3492.       3492.       3492.       3492.       3494.       3496.    
        3495.       3495.       3495.       3498.       3496.       3500.       3500.       3502.       3502.       3500.    
        3498.       3499.       3499.       3500.       3502.       3503.    
  44    3478.       3472.       3466.       3457.       3457.       3457.       3460.       3462.       3458.       3458.    
        3454.       3452.       3458.       3456.       3457.       3457.       3454.       3454.       3454.       3455.    
        3455.       3455.       3455.       3455.       3455.       3455.       3454.       3454.       3454.       3455.    
        3455.       3455.       3458.       3458.       3458.       3459.       3459.       3459.       3459.       3459.    
        3459.       3461.       3461.       3461.       3462.       3462.       3462.       3462.       3462.       3462.    
        3462.       3462.       3462.       3464.       3464.       3464.       3466.       3466.       3466.       3467.    
        3467.       3467.       3467.       3467.       3467.       3468.       3468.       3468.       3467.       3467.    
        3467.       3467.       3467.       3467.       3467.       3468.       3468.       3468.       3469.       3469.    
        3469.       3467.       3467.       3467.       3467.       3467.       3467.       3469.       3469.       3469.    
        3470.       3470.       3470.       3470.       3470.       3470.       3473.       3473.       3473.       3474.    
        3474.       3474.       3474.       3474.       3474.       3473.       3473.       3473.       3472.       3472.    
        3472.       3472.       3472.       3472.       3472.       3472.       3472.       3470.       3470.       3470.    
        3470.       3470.       3470.       3472.       3472.       3472.       3474.       3474.       3474.       3475.    
        3475.       3475.       3475.       3476.       3476.       3476.       3475.       3475.       3475.       3477.    
        3477.       3477.       3479.       3479.       3479.       3483.       3483.       3483.       3485.       3485.    
        3485.       3486.       3486.       3486.       3487.       3487.       3487.       3489.       3489.       3489.    
        3491.       3491.       3491.       3492.       3492.       3491.       3491.       3491.       3493.       3497.    
        3498.       3498.       3500.       3502.       3502.       3501.       3501.       3500.       3500.       3501.    
        3500.       3500.       3500.       3500.       3502.       3504.    
  45    3478.       3472.       3466.       3457.       3457.       3457.       3460.       3462.       3458.       3458.    
        3454.       3452.       3458.       3456.       3457.       3457.       3454.       3454.       3454.       3455.    
        3455.       3455.       3455.       3455.       3455.       3455.       3454.       3454.       3454.       3455.    
        3455.       3455.       3458.       3458.       3458.       3459.       3459.       3459.       3459.       3459.    
        3459.       3461.       3461.       3461.       3462.       3462.       3462.       3462.       3462.       3462.    
        3462.       3462.       3462.       3464.       3464.       3464.       3466.       3466.       3466.       3467.    
        3467.       3467.       3467.       3467.       3467.       3468.       3468.       3468.       3467.       3467.    
        3467.       3467.       3467.       3467.       3467.       3468.       3468.       3468.       3469.       3469.    
        3469.       3467.       3467.       3467.       3467.       3467.       3467.       3469.       3469.       3469.    
        3470.       3470.       3470.       3470.       3470.       3470.       3473.       3473.       3473.       3474.    
        3474.       3474.       3474.       3474.       3474.       3473.       3473.       3473.       3472.       3472.    
        3472.       3472.       3472.       3472.       3472.       3472.       3472.       3470.       3470.       3470.    
        3470.       3470.       3470.       3472.       3472.       3472.       3474.       3474.       3474.       3475.    
        3475.       3475.       3475.       3476.       3476.       3476.       3475.       3475.       3475.       3477.    
        3477.       3477.       3479.       3479.       3479.       3483.       3483.       3483.       3485.       3485.    
        3485.       3486.       3486.       3486.       3487.       3487.       3487.       3489.       3489.       3489.    
        3491.       3491.       3491.       3492.       3492.       3491.       3491.       3491.       3493.       3497.    
        3498.       3498.       3500.       3502.       3502.       3501.       3501.       3500.       3500.       3501.    
        3500.       3500.       3500.       3500.       3502.       3504.    
  46    3478.       3472.       3466.       3457.       3457.       3457.       3460.       3462.       3458.       3458.    
        3454.       3452.       3458.       3456.       3457.       3457.       3454.       3454.       3454.       3455.    
        3455.       3455.       3455.       3455.       3455.       3455.       3454.       3454.       3454.       3455.    
        3455.       3455.       3458.       3458.       3458.       3459.       3459.       3459.       3459.       3459.    
        3459.       3461.       3461.       3461.       3462.       3462.       3462.       3462.       3462.       3462.    
        3462.       3462.       3462.       3464.       3464.       3464.       3466.       3466.       3466.       3467.    
        3467.       3467.       3467.       3467.       3467.       3468.       3468.       3468.       3467.       3467.    
        3467.       3467.       3467.       3467.       3467.       3468.       3468.       3468.       3469.       3469.    
        3469.       3467.       3467.       3467.       3467.       3467.       3467.       3469.       3469.       3469.    
        3470.       3470.       3470.       3470.       3470.       3470.       3473.       3473.       3473.       3474.    
        3474.       3474.       3474.       3474.       3474.       3473.       3473.       3473.       3472.       3472.    
        3472.       3472.       3472.       3472.       3472.       3472.       3472.       3470.       3470.       3470.    
        3470.       3470.       3470.       3472.       3472.       3472.       3474.       3474.       3474.       3475.    
        3475.       3475.       3475.       3476.       3476.       3476.       3475.       3475.       3475.       3477.    
        3477.       3477.       3479.       3479.       3479.       3483.       3483.       3483.       3485.       3485.    
        3485.       3486.       3486.       3486.       3487.       3487.       3487.       3489.       3489.       3489.    
        3491.       3491.       3491.       3492.       3492.       3491.       3491.       3491.       3493.       3497.    
        3498.       3498.       3500.       3502.       3502.       3501.       3501.       3500.       3500.       3501.    
        3500.       3500.       3500.       3500.       3502.       3504.    
  47    3479.       3474.       3469.       3462.       3462.       3460.       3462.       3466.       3462.       3462.    
        3457.       3456.       3456.       3456.       3458.       3458.       3457.       3457.       3457.       3456.    
        3456.       3456.       3456.       3458.       3458.       3458.       3458.       3458.       3458.       3458.    
        3458.       3458.       3459.       3459.       3459.       3460.       3460.       3460.       3460.       3460.    
        3460.       3459.       3459.       3459.       3459.       3459.       3459.       3461.       3461.       3461.    
        3462.       3462.       3462.       3462.       3462.       3462.       3463.       3463.       3463.       3464.    
        3464.       3464.       3465.       3465.       3465.       3466.       3466.       3466.       3466.       3466.    
        3466.       3466.       3466.       3466.       3466.       3466.       3466.       3466.       3467.       3467.    
        3467.       3469.       3469.       3469.       3470.       3470.       3470.       3471.       3471.       3471.    
        3471.       3471.       3471.       3470.       3470.       3470.       3472.       3472.       3472.       3474.    
        3474.       3474.       3475.       3475.       3475.       3475.       3475.       3475.       3474.       3474.    
        3474.       3474.       3474.       3474.       3473.       3473.       3473.       3473.       3473.       3473.    
        3474.       3474.       3474.       3475.       3475.       3475.       3477.       3477.       3477.       3478.    
        3478.       3478.       3478.       3478.       3478.       3478.       3478.       3478.       3478.       3479.    
        3479.       3479.       3481.       3481.       3481.       3485.       3485.       3485.       3486.       3486.    
        3486.       3486.       3486.       3486.       3488.       3488.       3488.       3490.       3490.       3490.    
        3490.       3490.       3490.       3490.       3490.       3491.       3491.       3493.       3494.       3495.    
        3498.       3498.       3500.       3502.       3503.       3501.       3501.       3499.       3498.       3499.    
        3499.       3500.       3500.       3500.       3500.       3501.    
  48    3479.       3474.       3469.       3462.       3462.       3460.       3462.       3466.       3462.       3462.    
        3457.       3456.       3456.       3456.       3458.       3458.       3457.       3457.       3457.       3456.    
        3456.       3456.       3456.       3458.       3458.       3458.       3458.       3458.       3458.       3458.    
        3458.       3458.       3459.       3459.       3459.       3460.       3460.       3460.       3460.       3460.    
        3460.       3459.       3459.       3459.       3459.       3459.       3459.       3461.       3461.       3461.    
        3462.       3462.       3462.       3462.       3462.       3462.       3463.       3463.       3463.       3464.    
        3464.       3464.       3465.       3465.       3465.       3466.       3466.       3466.       3466.       3466.    
        3466.       3466.       3466.       3466.       3466.       3466.       3466.       3466.       3467.       3467.    
        3467.       3469.       3469.       3469.       3470.       3470.       3470.       3471.       3471.       3471.    
        3471.       3471.       3471.       3470.       3470.       3470.       3472.       3472.       3472.       3474.    
        3474.       3474.       3475.       3475.       3475.       3475.       3475.       3475.       3474.       3474.    
        3474.       3474.       3474.       3474.       3473.       3473.       3473.       3473.       3473.       3473.    
        3474.       3474.       3474.       3475.       3475.       3475.       3477.       3477.       3477.       3478.    
        3478.       3478.       3478.       3478.       3478.       3478.       3478.       3478.       3478.       3479.    
        3479.       3479.       3481.       3481.       3481.       3485.       3485.       3485.       3486.       3486.    
        3486.       3486.       3486.       3486.       3488.       3488.       3488.       3490.       3490.       3490.    
        3490.       3490.       3490.       3490.       3490.       3491.       3491.       3493.       3494.       3495.    
        3498.       3498.       3500.       3502.       3503.       3501.       3501.       3499.       3498.       3499.    
        3499.       3500.       3500.       3500.       3500.       3501.    
  49    3479.       3474.       3469.       3462.       3462.       3460.       3462.       3466.       3462.       3462.    
        3457.       3456.       3456.       3456.       3458.       3458.       3457.       3457.       3457.       3456.    
        3456.       3456.       3456.       3458.       3458.       3458.       3458.       3458.       3458.       3458.    
        3458.       3458.       3459.       3459.       3459.       3460.       3460.       3460.       3460.       3460.    
        3460.       3459.       3459.       3459.       3459.       3459.       3459.       3461.       3461.       3461.    
        3462.       3462.       3462.       3462.       3462.       3462.       3463.       3463.       3463.       3464.    
        3464.       3464.       3465.       3465.       3465.       3466.       3466.       3466.       3466.       3466.    
        3466.       3466.       3466.       3466.       3466.       3466.       3466.       3466.       3467.       3467.    
        3467.       3469.       3469.       3469.       3470.       3470.       3470.       3471.       3471.       3471.    
        3471.       3471.       3471.       3470.       3470.       3470.       3472.       3472.       3472.       3474.    
        3474.       3474.       3475.       3475.       3475.       3475.       3475.       3475.       3474.       3474.    
        3474.       3474.       3474.       3474.       3473.       3473.       3473.       3473.       3473.       3473.    
        3474.       3474.       3474.       3475.       3475.       3475.       3477.       3477.       3477.       3478.    
        3478.       3478.       3478.       3478.       3478.       3478.       3478.       3478.       3478.       3479.    
        3479.       3479.       3481.       3481.       3481.       3485.       3485.       3485.       3486.       3486.    
        3486.       3486.       3486.       3486.       3488.       3488.       3488.       3490.       3490.       3490.    
        3490.       3490.       3490.       3490.       3490.       3491.       3491.       3493.       3494.       3495.    
        3498.       3498.       3500.       3502.       3503.       3501.       3501.       3499.       3498.       3499.    
        3499.       3500.       3500.       3500.       3500.       3501.    
  50    3480.       3476.       3472.       3466.       3466.       3462.       3461.       3462.       3456.       3456.    
        3454.       3457.       3454.       3454.       3455.       3455.       3455.       3455.       3455.       3455.    
        3455.       3455.       3455.       3457.       3457.       3457.       3456.       3456.       3456.       3456.    
        3456.       3456.       3459.       3459.       3459.       3462.       3462.       3462.       3462.       3462.    
        3462.       3462.       3462.       3462.       3462.       3462.       3462.       3463.       3463.       3463.    
        3464.       3464.       3464.       3465.       3465.       3465.       3465.       3465.       3465.       3466.    
        3466.       3466.       3466.       3466.       3466.       3467.       3467.       3467.       3468.       3468.    
        3468.       3469.       3469.       3469.       3469.       3470.       3470.       3470.       3470.       3470.    
        3470.       3472.       3472.       3472.       3472.       3472.       3472.       3472.       3472.       3472.    
        3472.       3472.       3472.       3472.       3472.       3472.       3472.       3472.       3472.       3472.    
        3472.       3472.       3473.       3473.       3473.       3473.       3473.       3473.       3475.       3475.    
        3475.       3477.       3477.       3477.       3476.       3476.       3476.       3476.       3476.       3476.    
        3478.       3478.       3478.       3478.       3478.       3478.       3477.       3477.       3477.       3478.    
        3478.       3478.       3478.       3478.       3478.       3478.       3478.       3478.       3478.       3479.    
        3479.       3479.       3482.       3482.       3482.       3486.       3486.       3486.       3487.       3487.    
        3487.       3487.       3487.       3487.       3488.       3488.       3488.       3489.       3489.       3489.    
        3490.       3490.       3490.       3490.       3490.       3491.       3491.       3492.       3493.       3493.    
        3494.       3494.       3496.       3498.       3499.       3499.       3499.       3498.       3497.       3498.    
        3498.       3499.       3499.       3498.       3500.       3501.    
  51    3480.       3476.       3472.       3466.       3466.       3462.       3461.       3462.       3456.       3456.    
        3454.       3457.       3454.       3454.       3455.       3455.       3455.       3455.       3455.       3455.    
        3455.       3455.       3455.       3457.       3457.       3457.       3456.       3456.       3456.       3456.    
        3456.       3456.       3459.       3459.       3459.       3462.       3462.       3462.       3462.       3462.    
        3462.       3462.       3462.       3462.       3462.       3462.       3462.       3463.       3463.       3463.    
        3464.       3464.       3464.       3465.       3465.       3465.       3465.       3465.       3465.       3466.    
        3466.       3466.       3466.       3466.       3466.       3467.       3467.       3467.       3468.       3468.    
        3468.       3469.       3469.       3469.       3469.       3470.       3470.       3470.       3470.       3470.    
        3470.       3472.       3472.       3472.       3472.       3472.       3472.       3472.       3472.       3472.    
        3472.       3472.       3472.       3472.       3472.       3472.       3472.       3472.       3472.       3472.    
        3472.       3472.       3473.       3473.       3473.       3473.       3473.       3473.       3475.       3475.    
        3475.       3477.       3477.       3477.       3476.       3476.       3476.       3476.       3476.       3476.    
        3478.       3478.       3478.       3478.       3478.       3478.       3477.       3477.       3477.       3478.    
        3478.       3478.       3478.       3478.       3478.       3478.       3478.       3478.       3478.       3479.    
        3479.       3479.       3482.       3482.       3482.       3486.       3486.       3486.       3487.       3487.    
        3487.       3487.       3487.       3487.       3488.       3488.       3488.       3489.       3489.       3489.    
        3490.       3490.       3490.       3490.       3490.       3491.       3491.       3492.       3493.       3493.    
        3494.       3494.       3496.       3498.       3499.       3499.       3499.       3498.       3497.       3498.    
        3498.       3499.       3499.       3498.       3500.       3501.    
  52    3480.       3476.       3472.       3466.       3466.       3462.       3461.       3462.       3456.       3456.    
        3454.       3457.       3454.       3454.       3455.       3455.       3455.       3455.       3455.       3455.    
        3455.       3455.       3455.       3457.       3457.       3457.       3456.       3456.       3456.       3456.    
        3456.       3456.       3459.       3459.       3459.       3462.       3462.       3462.       3462.       3462.    
        3462.       3462.       3462.       3462.       3462.       3462.       3462.       3463.       3463.       3463.    
        3464.       3464.       3464.       3465.       3465.       3465.       3465.       3465.       3465.       3466.    
        3466.       3466.       3466.       3466.       3466.       3467.       3467.       3467.       3468.       3468.    
        3468.       3469.       3469.       3469.       3469.       3470.       3470.       3470.       3470.       3470.    
        3470.       3472.       3472.       3472.       3472.       3472.       3472.       3472.       3472.       3472.    
        3472.       3472.       3472.       3472.       3472.       3472.       3472.       3472.       3472.       3472.    
        3472.       3472.       3473.       3473.       3473.       3473.       3473.       3473.       3475.       3475.    
        3475.       3477.       3477.       3477.       3476.       3476.       3476.       3476.       3476.       3476.    
        3478.       3478.       3478.       3478.       3478.       3478.       3477.       3477.       3477.       3478.    
        3478.       3478.       3478.       3478.       3478.       3478.       3478.       3478.       3478.       3479.    
        3479.       3479.       3482.       3482.       3482.       3486.       3486.       3486.       3487.       3487.    
        3487.       3487.       3487.       3487.       3488.       3488.       3488.       3489.       3489.       3489.    
        3490.       3490.       3490.       3490.       3490.       3491.       3491.       3492.       3493.       3493.    
        3494.       3494.       3496.       3498.       3499.       3499.       3499.       3498.       3497.       3498.    
        3498.       3499.       3499.       3498.       3500.       3501.    
  53    3482.       3476.       3474.       3469.       3469.       3466.       3463.       3459.       3455.       3455.    
        3453.       3454.       3452.       3454.       3455.       3455.       3456.       3456.       3456.       3454.    
        3454.       3454.       3454.       3457.       3457.       3457.       3458.       3458.       3458.       3458.    
        3458.       3458.       3460.       3460.       3460.       3461.       3461.       3461.       3460.       3460.    
        3460.       3459.       3459.       3459.       3461.       3461.       3461.       3463.       3463.       3463.    
        3464.       3464.       3464.       3465.       3465.       3465.       3466.       3466.       3466.       3466.    
        3466.       3466.       3467.       3467.       3467.       3467.       3467.       3467.       3469.       3469.    
        3469.       3470.       3470.       3470.       3470.       3470.       3470.       3470.       3471.       3471.    
        3471.       3472.       3472.       3472.       3472.       3472.       3472.       3472.       3472.       3472.    
        3470.       3470.       3470.       3471.       3471.       3471.       3471.       3471.       3471.       3473.    
        3473.       3473.       3476.       3476.       3476.       3476.       3476.       3476.       3476.       3476.    
        3476.       3476.       3476.       3476.       3475.       3475.       3475.       3475.       3475.       3475.    
        3476.       3476.       3476.       3478.       3478.       3478.       3476.       3476.       3476.       3477.    
        3477.       3477.       3477.       3478.       3478.       3478.       3482.       3482.       3482.       3484.    
        3484.       3484.       3485.       3485.       3485.       3486.       3486.       3486.       3489.       3489.    
        3489.       3488.       3488.       3488.       3487.       3487.       3487.       3489.       3489.       3489.    
        3490.       3490.       3490.       3490.       3490.       3490.       3490.       3490.       3490.       3491.    
        3494.       3494.       3495.       3498.       3500.       3498.       3498.       3497.       3497.       3498.    
        3499.       3501.       3501.       3502.       3502.       3503.    
  54    3482.       3476.       3474.       3469.       3469.       3466.       3463.       3459.       3455.       3455.    
        3453.       3454.       3452.       3454.       3455.       3455.       3456.       3456.       3456.       3454.    
        3454.       3454.       3454.       3457.       3457.       3457.       3458.       3458.       3458.       3458.    
        3458.       3458.       3460.       3460.       3460.       3461.       3461.       3461.       3460.       3460.    
        3460.       3459.       3459.       3459.       3461.       3461.       3461.       3463.       3463.       3463.    
        3464.       3464.       3464.       3465.       3465.       3465.       3466.       3466.       3466.       3466.    
        3466.       3466.       3467.       3467.       3467.       3467.       3467.       3467.       3469.       3469.    
        3469.       3470.       3470.       3470.       3470.       3470.       3470.       3470.       3471.       3471.    
        3471.       3472.       3472.       3472.       3472.       3472.       3472.       3472.       3472.       3472.    
        3470.       3470.       3470.       3471.       3471.       3471.       3471.       3471.       3471.       3473.    
        3473.       3473.       3476.       3476.       3476.       3476.       3476.       3476.       3476.       3476.    
        3476.       3476.       3476.       3476.       3475.       3475.       3475.       3475.       3475.       3475.    
        3476.       3476.       3476.       3478.       3478.       3478.       3476.       3476.       3476.       3477.    
        3477.       3477.       3477.       3478.       3478.       3478.       3482.       3482.       3482.       3484.    
        3484.       3484.       3485.       3485.       3485.       3486.       3486.       3486.       3489.       3489.    
        3489.       3488.       3488.       3488.       3487.       3487.       3487.       3489.       3489.       3489.    
        3490.       3490.       3490.       3490.       3490.       3490.       3490.       3490.       3490.       3491.    
        3494.       3494.       3495.       3498.       3500.       3498.       3498.       3497.       3497.       3498.    
        3499.       3501.       3501.       3502.       3502.       3503.    
  55    3482.       3476.       3474.       3469.       3469.       3466.       3463.       3459.       3455.       3455.    
        3453.       3454.       3452.       3454.       3455.       3455.       3456.       3456.       3456.       3454.    
        3454.       3454.       3454.       3457.       3457.       3457.       3458.       3458.       3458.       3458.    
        3458.       3458.       3460.       3460.       3460.       3461.       3461.       3461.       3460.       3460.    
        3460.       3459.       3459.       3459.       3461.       3461.       3461.       3463.       3463.       3463.    
        3464.       3464.       3464.       3465.       3465.       3465.       3466.       3466.       3466.       3466.    
        3466.       3466.       3467.       3467.       3467.       3467.       3467.       3467.       3469.       3469.    
        3469.       3470.       3470.       3470.       3470.       3470.       3470.       3470.       3471.       3471.    
        3471.       3472.       3472.       3472.       3472.       3472.       3472.       3472.       3472.       3472.    
        3470.       3470.       3470.       3471.       3471.       3471.       3471.       3471.       3471.       3473.    
        3473.       3473.       3476.       3476.       3476.       3476.       3476.       3476.       3476.       3476.    
        3476.       3476.       3476.       3476.       3475.       3475.       3475.       3475.       3475.       3475.    
        3476.       3476.       3476.       3478.       3478.       3478.       3476.       3476.       3476.       3476.    
        3477.       3477.       3477.       3478.       3478.       3478.       3482.       3482.       3482.       3484.    
        3484.       3484.       3485.       3485.       3485.       3486.       3486.       3486.       3489.       3489.    
        3489.       3488.       3488.       3488.       3487.       3487.       3487.       3489.       3489.       3489.    
        3490.       3490.       3490.       3490.       3490.       3490.       3490.       3490.       3490.       3491.    
        3494.       3494.       3495.       3498.       3500.       3498.       3498.       3497.       3497.       3498.    
        3499.       3501.       3501.       3502.       3502.       3503.    
  56    3482.       3478.       3474.       3471.       3471.       3469.       3468.       3466.       3461.       3461.    
        3457.       3454.       3452.       3454.       3458.       3458.       3456.       3456.       3456.       3456.    
        3456.       3456.       3456.       3456.       3456.       3456.       3456.       3456.       3456.       3458.    
        3458.       3458.       3461.       3461.       3461.       3461.       3461.       3461.       3460.       3460.    
        3460.       3460.       3460.       3460.       3461.       3461.       3461.       3462.       3462.       3462.    
        3463.       3463.       3463.       3463.       3463.       3463.       3465.       3465.       3465.       3467.    
        3467.       3467.       3467.       3467.       3467.       3467.       3467.       3467.       3467.       3467.    
        3467.       3467.       3467.       3467.       3467.       3468.       3468.       3468.       3470.       3470.    
        3470.       3470.       3470.       3470.       3473.       3473.       3473.       3473.       3473.       3473.    
        3474.       3474.       3474.       3474.       3474.       3474.       3472.       3472.       3472.       3472.    
        3472.       3472.       3475.       3475.       3475.       3477.       3477.       3477.       3477.       3477.    
        3477.       3475.       3475.       3475.       3474.       3474.       3474.       3475.       3475.       3475.    
        3477.       3477.       3477.       3479.       3479.       3479.       3480.       3480.       3480.       3482.    
        3482.       3482.       3482.       3483.       3483.       3483.       3485.       3485.       3485.       3485.    
        3485.       3485.       3486.       3486.       3486.       3486.       3486.       3486.       3487.       3487.    
        3487.       3489.       3489.       3489.       3490.       3490.       3490.       3490.       3490.       3490.    
        3490.       3490.       3490.       3489.       3489.       3490.       3490.       3488.       3490.       3494.    
        3498.       3498.       3499.       3500.       3502.       3502.       3502.       3500.       3500.       3500.    
        3500.       3501.       3501.       3502.       3504.       3507.    
  57    3482.       3478.       3474.       3471.       3471.       3469.       3468.       3466.       3461.       3461.    
        3457.       3454.       3452.       3454.       3458.       3458.       3456.       3456.       3456.       3456.    
        3456.       3456.       3456.       3456.       3456.       3456.       3456.       3456.       3456.       3458.    
        3458.       3458.       3461.       3461.       3461.       3461.       3461.       3461.       3460.       3460.    
        3460.       3460.       3460.       3460.       3461.       3461.       3461.       3462.       3462.       3462.    
        3463.       3463.       3463.       3463.       3463.       3463.       3465.       3465.       3465.       3467.    
        3467.       3467.       3467.       3467.       3467.       3467.       3467.       3467.       3467.       3467.    
        3467.       3467.       3467.       3467.       3467.       3468.       3468.       3468.       3470.       3470.    
        3470.       3470.       3470.       3470.       3473.       3473.       3473.       3473.       3473.       3473.    
        3474.       3474.       3474.       3474.       3474.       3474.       3472.       3472.       3472.       3472.    
        3472.       3472.       3475.       3475.       3475.       3477.       3477.       3477.       3477.       3477.    
        3477.       3475.       3475.       3475.       3474.       3474.       3474.       3475.       3475.       3475.    
        3477.       3477.       3477.       3479.       3479.       3479.       3480.       3480.       3480.       3482.    
        3482.       3482.       3482.       3483.       3483.       3483.       3485.       3485.       3485.       3485.    
        3485.       3485.       3486.       3486.       3486.       3486.       3486.       3486.       3487.       3487.    
        3487.       3489.       3489.       3489.       3490.       3490.       3490.       3490.       3490.       3490.    
        3490.       3490.       3490.       3489.       3489.       3490.       3490.       3488.       3490.       3494.    
        3498.       3498.       3499.       3500.       3502.       3502.       3502.       3500.       3500.       3500.    
        3500.       3501.       3501.       3502.       3504.       3507.    
  58    3482.       3478.       3474.       3471.       3471.       3469.       3468.       3466.       3461.       3461.    
        3457.       3454.       3452.       3454.       3458.       3458.       3456.       3456.       3456.       3456.    
        3456.       3456.       3456.       3456.       3456.       3456.       3456.       3456.       3456.       3458.    
        3458.       3458.       3461.       3461.       3461.       3461.       3461.       3461.       3460.       3460.    
        3460.       3460.       3460.       3460.       3461.       3461.       3461.       3462.       3462.       3462.    
        3463.       3463.       3463.       3463.       3463.       3463.       3465.       3465.       3465.       3467.    
        3467.       3467.       3467.       3467.       3467.       3467.       3467.       3467.       3467.       3467.    
        3467.       3467.       3467.       3467.       3467.       3468.       3468.       3468.       3470.       3470.    
        3470.       3470.       3470.       3470.       3473.       3473.       3473.       3473.       3473.       3473.    
        3474.       3474.       3474.       3474.       3474.       3474.       3472.       3472.       3472.       3472.    
        3472.       3472.       3475.       3475.       3475.       3477.       3477.       3477.       3477.       3477.    
        3477.       3475.       3475.       3475.       3474.       3474.       3474.       3475.       3475.       3475.    
        3477.       3477.       3477.       3479.       3479.       3479.       3480.       3480.       3480.       3482.    
        3482.       3482.       3482.       3483.       3483.       3483.       3485.       3485.       3485.       3485.    
        3485.       3485.       3486.       3486.       3486.       3486.       3486.       3486.       3487.       3487.    
        3487.       3489.       3489.       3489.       3490.       3490.       3490.       3490.       3490.       3490.    
        3490.       3490.       3490.       3489.       3489.       3490.       3490.       3488.       3490.       3494.    
        3498.       3498.       3499.       3500.       3502.       3502.       3502.       3500.       3500.       3500.    
        3500.       3501.       3501.       3502.       3504.       3507.    
  59    3483.       3478.       3474.       3476.       3476.       3475.       3474.       3469.       3465.       3465.    
        3462.       3460.       3455.       3455.       3460.       3460.       3458.       3458.       3458.       3458.    
        3458.       3458.       3458.       3458.       3458.       3458.       3457.       3457.       3457.       3458.    
        3458.       3458.       3459.       3459.       3459.       3458.       3458.       3458.       3458.       3458.    
        3458.       3458.       3458.       3458.       3459.       3459.       3459.       3461.       3461.       3461.    
        3462.       3462.       3462.       3461.       3461.       3461.       3462.       3462.       3462.       3465.    
        3465.       3465.       3466.       3466.       3466.       3466.       3466.       3466.       3468.       3468.    
        3468.       3469.       3469.       3469.       3469.       3468.       3468.       3468.       3468.       3468.    
        3468.       3469.       3469.       3469.       3472.       3472.       3472.       3474.       3474.       3474.    
        3475.       3475.       3475.       3477.       3477.       3477.       3476.       3476.       3476.       3475.    
        3475.       3475.       3476.       3476.       3476.       3477.       3477.       3477.       3477.       3477.    
        3477.       3475.       3475.       3475.       3476.       3476.       3476.       3477.       3477.       3477.    
        3479.       3479.       3479.       3481.       3481.       3481.       3483.       3483.       3483.       3486.    
        3486.       3486.       3486.       3488.       3488.       3488.       3489.       3489.       3489.       3489.    
        3489.       3489.       3489.       3489.       3489.       3489.       3489.       3489.       3489.       3489.    
        3489.       3490.       3490.       3490.       3490.       3490.       3490.       3490.       3490.       3490.    
        3490.       3490.       3490.       3489.       3489.       3490.       3490.       3492.       3494.       3498.    
        3500.       3500.       3500.       3501.       3502.       3503.       3503.       3501.       3500.       3501.    
        3502.       3504.       3504.       3506.       3510.       3515.    
  60    3483.       3478.       3474.       3476.       3476.       3475.       3474.       3469.       3465.       3465.    
        3462.       3460.       3455.       3455.       3460.       3460.       3458.       3458.       3458.       3458.    
        3458.       3458.       3458.       3458.       3458.       3458.       3457.       3457.       3457.       3458.    
        3458.       3458.       3459.       3459.       3459.       3458.       3458.       3458.       3458.       3458.    
        3458.       3458.       3458.       3458.       3459.       3459.       3459.       3461.       3461.       3461.    
        3462.       3462.       3462.       3461.       3461.       3461.       3462.       3462.       3462.       3465.    
        3465.       3465.       3466.       3466.       3466.       3466.       3466.       3466.       3468.       3468.    
        3468.       3469.       3469.       3469.       3469.       3468.       3468.       3468.       3468.       3468.    
        3468.       3469.       3469.       3469.       3472.       3472.       3472.       3474.       3474.       3474.    
        3475.       3475.       3475.       3477.       3477.       3477.       3476.       3476.       3476.       3475.    
        3475.       3475.       3476.       3476.       3476.       3477.       3477.       3477.       3477.       3477.    
        3477.       3475.       3475.       3475.       3476.       3476.       3476.       3477.       3477.       3477.    
        3479.       3479.       3479.       3481.       3481.       3481.       3483.       3483.       3483.       3486.    
        3486.       3486.       3486.       3488.       3488.       3488.       3489.       3489.       3489.       3489.    
        3489.       3489.       3489.       3489.       3489.       3489.       3489.       3489.       3489.       3489.    
        3489.       3490.       3490.       3490.       3490.       3490.       3490.       3490.       3490.       3490.    
        3490.       3490.       3490.       3489.       3489.       3490.       3490.       3492.       3494.       3498.    
        3500.       3500.       3500.       3501.       3502.       3503.       3503.       3501.       3500.       3501.    
        3502.       3504.       3504.       3506.       3510.       3515.    
  61    3483.       3478.       3474.       3476.       3476.       3475.       3474.       3469.       3465.       3465.    
        3462.       3460.       3455.       3455.       3460.       3460.       3458.       3458.       3458.       3458.    
        3458.       3458.       3458.       3458.       3458.       3458.       3457.       3457.       3457.       3458.    
        3458.       3458.       3459.       3459.       3459.       3458.       3458.       3458.       3458.       3458.    
        3458.       3458.       3458.       3458.       3459.       3459.       3459.       3461.       3461.       3461.    
        3462.       3462.       3462.       3461.       3461.       3461.       3462.       3462.       3462.       3465.    
        3465.       3465.       3466.       3466.       3466.       3466.       3466.       3466.       3468.       3468.    
        3468.       3469.       3469.       3469.       3469.       3468.       3468.       3468.       3468.       3468.    
        3468.       3469.       3469.       3469.       3472.       3472.       3472.       3474.       3474.       3474.    
        3475.       3475.       3475.       3477.       3477.       3477.       3476.       3476.       3476.       3475.    
        3475.       3475.       3476.       3476.       3476.       3477.       3477.       3477.       3477.       3477.    
        3477.       3475.       3475.       3475.       3476.       3476.       3476.       3477.       3477.       3477.    
        3479.       3479.       3479.       3481.       3481.       3481.       3483.       3483.       3483.       3486.    
        3486.       3486.       3486.       3488.       3488.       3488.       3489.       3489.       3489.       3489.    
        3489.       3489.       3489.       3489.       3489.       3489.       3489.       3489.       3489.       3489.    
        3489.       3490.       3490.       3490.       3490.       3490.       3490.       3490.       3490.       3490.    
        3490.       3490.       3490.       3489.       3489.       3490.       3490.       3492.       3494.       3498.    
        3500.       3500.       3500.       3501.       3502.       3503.       3503.       3501.       3500.       3501.    
        3502.       3504.       3504.       3506.       3510.       3515.    
  62    3486.       3482.       3478.       3478.       3478.       3478.       3476.       3472.       3467.       3467.    
        3464.       3459.       3457.       3455.       3460.       3460.       3461.       3461.       3461.       3459.    
        3459.       3459.       3459.       3460.       3460.       3460.       3459.       3459.       3459.       3459.    
        3459.       3459.       3460.       3460.       3460.       3460.       3460.       3460.       3460.       3460.    
        3460.       3462.       3462.       3462.       3464.       3464.       3464.       3464.       3464.       3464.    
        3463.       3463.       3463.       3464.       3464.       3464.       3463.       3463.       3463.       3464.    
        3464.       3464.       3464.       3464.       3464.       3466.       3466.       3466.       3466.       3466.    
        3466.       3470.       3470.       3470.       3470.       3471.       3471.       3471.       3471.       3471.    
        3471.       3470.       3470.       3470.       3471.       3471.       3471.       3473.       3473.       3473.    
        3475.       3475.       3475.       3475.       3475.       3475.       3476.       3476.       3476.       3478.    
        3478.       3478.       3478.       3478.       3478.       3478.       3478.       3478.       3477.       3477.    
        3477.       3476.       3476.       3476.       3476.       3476.       3476.       3478.       3478.       3478.    
        3478.       3478.       3478.       3480.       3480.       3480.       3482.       3482.       3482.       3487.    
        3487.       3487.       3487.       3490.       3490.       3490.       3491.       3491.       3491.       3492.    
        3492.       3492.       3490.       3490.       3490.       3490.       3490.       3490.       3490.       3490.    
        3490.       3489.       3489.       3489.       3489.       3489.       3489.       3490.       3490.       3490.    
        3490.       3490.       3490.       3490.       3490.       3494.       3494.       3494.       3497.       3500.    
        3501.       3501.       3501.       3502.       3504.       3506.       3506.       3505.       3505.       3506.    
        3508.       3509.       3509.       3510.       3514.       3517.    
  63    3486.       3482.       3478.       3478.       3478.       3478.       3476.       3472.       3467.       3467.    
        3464.       3459.       3457.       3455.       3460.       3460.       3461.       3461.       3461.       3459.    
        3459.       3459.       3459.       3460.       3460.       3460.       3459.       3459.       3459.       3459.    
        3459.       3459.       3460.       3460.       3460.       3460.       3460.       3460.       3460.       3460.    
        3460.       3462.       3462.       3462.       3464.       3464.       3464.       3464.       3464.       3464.    
        3463.       3463.       3463.       3464.       3464.       3464.       3463.       3463.       3463.       3464.    
        3464.       3464.       3464.       3464.       3464.       3466.       3466.       3466.       3466.       3466.    
        3466.       3470.       3470.       3470.       3470.       3471.       3471.       3471.       3471.       3471.    
        3471.       3470.       3470.       3470.       3471.       3471.       3471.       3473.       3473.       3473.    
        3475.       3475.       3475.       3475.       3475.       3475.       3476.       3476.       3476.       3478.    
        3478.       3478.       3478.       3478.       3478.       3478.       3478.       3478.       3477.       3477.    
        3477.       3476.       3476.       3476.       3476.       3476.       3476.       3478.       3478.       3478.    
        3478.       3478.       3478.       3480.       3480.       3480.       3482.       3482.       3482.       3487.    
        3487.       3487.       3487.       3490.       3490.       3490.       3491.       3491.       3491.       3492.    
        3492.       3492.       3490.       3490.       3490.       3490.       3490.       3490.       3490.       3490.    
        3490.       3489.       3489.       3489.       3489.       3489.       3489.       3490.       3490.       3490.    
        3490.       3490.       3490.       3490.       3490.       3494.       3494.       3494.       3497.       3500.    
        3501.       3501.       3501.       3502.       3504.       3506.       3506.       3505.       3505.       3506.    
        3508.       3509.       3509.       3510.       3514.       3517.    
  64    3486.       3482.       3478.       3478.       3478.       3478.       3476.       3472.       3467.       3467.    
        3464.       3459.       3457.       3455.       3460.       3460.       3461.       3461.       3461.       3459.    
        3459.       3459.       3459.       3460.       3460.       3460.       3459.       3459.       3459.       3459.    
        3459.       3459.       3460.       3460.       3460.       3460.       3460.       3460.       3460.       3460.    
        3460.       3462.       3462.       3462.       3464.       3464.       3464.       3464.       3464.       3464.    
        3463.       3463.       3463.       3464.       3464.       3464.       3463.       3463.       3463.       3464.    
        3464.       3464.       3464.       3464.       3464.       3466.       3466.       3466.       3466.       3466.    
        3466.       3470.       3470.       3470.       3470.       3471.       3471.       3471.       3471.       3471.    
        3471.       3470.       3470.       3470.       3471.       3471.       3471.       3473.       3473.       3473.    
        3475.       3475.       3475.       3475.       3475.       3475.       3476.       3476.       3476.       3478.    
        3478.       3478.       3478.       3478.       3478.       3478.       3478.       3478.       3477.       3477.    
        3477.       3476.       3476.       3476.       3476.       3476.       3476.       3478.       3478.       3478.    
        3478.       3478.       3478.       3480.       3480.       3480.       3482.       3482.       3482.       3487.    
        3487.       3487.       3487.       3490.       3490.       3490.       3491.       3491.       3491.       3492.    
        3492.       3492.       3490.       3490.       3490.       3490.       3490.       3490.       3490.       3490.    
        3490.       3489.       3489.       3489.       3489.       3489.       3489.       3490.       3490.       3490.    
        3490.       3490.       3490.       3490.       3490.       3494.       3494.       3494.       3497.       3500.    
        3501.       3501.       3501.       3502.       3504.       3506.       3506.       3505.       3505.       3506.    
        3508.       3509.       3509.       3510.       3514.       3517.    
  65    3489.       3486.       3485.       3482.       3482.       3481.       3478.       3474.       3470.       3470.    
        3466.       3458.       3454.       3454.       3458.       3458.       3460.       3460.       3460.       3460.    
        3460.       3460.       3460.       3456.       3456.       3456.       3456.       3456.       3456.       3458.    
        3458.       3458.       3460.       3460.       3460.       3461.       3461.       3461.       3463.       3463.    
        3463.       3467.       3467.       3467.       3468.       3468.       3468.       3466.       3466.       3466.    
        3465.       3465.       3465.       3465.       3465.       3465.       3466.       3466.       3466.       3467.    
        3467.       3467.       3469.       3469.       3469.       3470.       3470.       3470.       3472.       3472.    
        3472.       3472.       3472.       3472.       3472.       3471.       3471.       3471.       3470.       3470.    
        3470.       3470.       3470.       3470.       3470.       3470.       3470.       3473.       3473.       3473.    
        3474.       3474.       3474.       3477.       3477.       3477.       3478.       3478.       3478.       3479.    
        3479.       3479.       3478.       3478.       3478.       3477.       3477.       3477.       3477.       3477.    
        3477.       3477.       3477.       3477.       3478.       3478.       3478.       3478.       3478.       3478.    
        3478.       3478.       3478.       3479.       3479.       3479.       3481.       3481.       3481.       3484.    
        3484.       3484.       3484.       3486.       3486.       3486.       3488.       3488.       3488.       3489.    
        3489.       3489.       3489.       3489.       3489.       3490.       3490.       3490.       3490.       3490.    
        3490.       3490.       3490.       3490.       3491.       3491.       3491.       3492.       3492.       3492.    
        3492.       3492.       3492.       3492.       3492.       3494.       3494.       3497.       3500.       3504.    
        3506.       3506.       3506.       3504.       3508.       3513.       3513.       3514.       3513.       3513.    
        3513.       3512.       3512.       3513.       3515.       3516.    
  66    3489.       3486.       3485.       3482.       3482.       3481.       3478.       3474.       3470.       3470.    
        3466.       3458.       3454.       3454.       3458.       3458.       3460.       3460.       3460.       3460.    
        3460.       3460.       3460.       3456.       3456.       3456.       3456.       3456.       3456.       3458.    
        3458.       3458.       3460.       3460.       3460.       3461.       3461.       3461.       3463.       3463.    
        3463.       3467.       3467.       3467.       3468.       3468.       3468.       3466.       3466.       3466.    
        3465.       3465.       3465.       3465.       3465.       3465.       3466.       3466.       3466.       3467.    
        3467.       3467.       3469.       3469.       3469.       3470.       3470.       3470.       3472.       3472.    
        3472.       3472.       3472.       3472.       3472.       3471.       3471.       3471.       3470.       3470.    
        3470.       3470.       3470.       3470.       3470.       3470.       3470.       3473.       3473.       3473.    
        3474.       3474.       3474.       3477.       3477.       3477.       3478.       3478.       3478.       3479.    
        3479.       3479.       3478.       3478.       3478.       3477.       3477.       3477.       3477.       3477.    
        3477.       3477.       3477.       3477.       3478.       3478.       3478.       3478.       3478.       3478.    
        3478.       3478.       3478.       3479.       3479.       3479.       3481.       3481.       3481.       3484.    
        3484.       3484.       3484.       3486.       3486.       3486.       3488.       3488.       3488.       3489.    
        3489.       3489.       3489.       3489.       3489.       3490.       3490.       3490.       3490.       3490.    
        3490.       3490.       3490.       3490.       3491.       3491.       3491.       3492.       3492.       3492.    
        3492.       3492.       3492.       3492.       3492.       3494.       3494.       3497.       3500.       3504.    
        3506.       3506.       3506.       3504.       3508.       3513.       3513.       3514.       3513.       3513.    
        3513.       3512.       3512.       3513.       3515.       3516.    
  67    3489.       3486.       3485.       3482.       3482.       3481.       3478.       3474.       3470.       3470.    
        3466.       3458.       3454.       3454.       3458.       3458.       3460.       3460.       3460.       3460.    
        3460.       3460.       3460.       3456.       3456.       3456.       3456.       3456.       3456.       3458.    
        3458.       3458.       3460.       3460.       3460.       3461.       3461.       3461.       3463.       3463.    
        3463.       3467.       3467.       3467.       3468.       3468.       3468.       3466.       3466.       3466.    
        3465.       3465.       3465.       3465.       3465.       3465.       3466.       3466.       3466.       3467.    
        3467.       3467.       3469.       3469.       3469.       3470.       3470.       3470.       3472.       3472.    
        3472.       3472.       3472.       3472.       3472.       3471.       3471.       3471.       3470.       3470.    
        3470.       3470.       3470.       3470.       3470.       3470.       3470.       3473.       3473.       3473.    
        3474.       3474.       3474.       3477.       3477.       3477.       3478.       3478.       3478.       3479.    
        3479.       3479.       3478.       3478.       3478.       3477.       3477.       3477.       3477.       3477.    
        3477.       3477.       3477.       3477.       3478.       3478.       3478.       3478.       3478.       3478.    
        3478.       3478.       3478.       3479.       3479.       3479.       3481.       3481.       3481.       3484.    
        3484.       3484.       3484.       3486.       3486.       3486.       3488.       3488.       3488.       3489.    
        3489.       3489.       3489.       3489.       3489.       3490.       3490.       3490.       3490.       3490.    
        3490.       3490.       3490.       3490.       3491.       3491.       3491.       3492.       3492.       3492.    
        3492.       3492.       3492.       3492.       3492.       3494.       3494.       3497.       3500.       3504.    
        3506.       3506.       3506.       3504.       3508.       3513.       3513.       3514.       3513.       3513.    
        3513.       3512.       3512.       3513.       3515.       3516.    
  68    3489.       3490.       3487.       3484.       3484.       3482.       3481.       3476.       3471.       3471.    
        3466.       3458.       3455.       3456.       3458.       3458.       3460.       3460.       3460.       3458.    
        3458.       3458.       3458.       3456.       3456.       3456.       3457.       3457.       3457.       3461.    
        3461.       3461.       3462.       3462.       3462.       3463.       3463.       3463.       3466.       3466.    
        3466.       3467.       3467.       3467.       3469.       3469.       3469.       3468.       3468.       3468.    
        3466.       3466.       3466.       3464.       3464.       3464.       3463.       3463.       3463.       3462.    
        3462.       3462.       3465.       3465.       3465.       3468.       3468.       3468.       3471.       3471.    
        3471.       3474.       3474.       3474.       3474.       3474.       3474.       3474.       3473.       3473.    
        3473.       3473.       3473.       3473.       3474.       3474.       3474.       3474.       3474.       3474.    
        3475.       3475.       3475.       3478.       3478.       3478.       3479.       3479.       3479.       3478.    
        3478.       3478.       3478.       3478.       3478.       3479.       3479.       3479.       3479.       3479.    
        3479.       3479.       3479.       3479.       3480.       3480.       3480.       3481.       3481.       3481.    
        3482.       3482.       3482.       3482.       3482.       3482.       3482.       3482.       3482.       3482.    
        3482.       3482.       3482.       3483.       3483.       3483.       3486.       3486.       3486.       3486.    
        3486.       3486.       3486.       3486.       3486.       3487.       3487.       3487.       3490.       3490.    
        3490.       3490.       3490.       3490.       3490.       3490.       3490.       3492.       3492.       3492.    
        3494.       3494.       3494.       3494.       3494.       3495.       3495.       3497.       3506.       3508.    
        3509.       3509.       3509.       3509.       3509.       3511.       3511.       3515.       3515.       3513.    
        3512.       3511.       3511.       3511.       3514.       3518.    
  69    3489.       3490.       3487.       3484.       3484.       3482.       3481.       3476.       3471.       3471.    
        3466.       3458.       3455.       3456.       3458.       3458.       3460.       3460.       3460.       3458.    
        3458.       3458.       3458.       3456.       3456.       3456.       3457.       3457.       3457.       3461.    
        3461.       3461.       3462.       3462.       3462.       3463.       3463.       3463.       3466.       3466.    
        3466.       3467.       3467.       3467.       3469.       3469.       3469.       3468.       3468.       3468.    
        3466.       3466.       3466.       3464.       3464.       3464.       3463.       3463.       3463.       3462.    
        3462.       3462.       3465.       3465.       3465.       3468.       3468.       3468.       3471.       3471.    
        3471.       3474.       3474.       3474.       3474.       3474.       3474.       3474.       3473.       3473.    
        3473.       3473.       3473.       3473.       3474.       3474.       3474.       3474.       3474.       3474.    
        3475.       3475.       3475.       3478.       3478.       3478.       3479.       3479.       3479.       3478.    
        3478.       3478.       3478.       3478.       3478.       3479.       3479.       3479.       3479.       3479.    
        3479.       3479.       3479.       3479.       3480.       3480.       3480.       3481.       3481.       3481.    
        3482.       3482.       3482.       3482.       3482.       3482.       3482.       3482.       3482.       3482.    
        3482.       3482.       3482.       3483.       3483.       3483.       3486.       3486.       3486.       3486.    
        3486.       3486.       3486.       3486.       3486.       3487.       3487.       3487.       3490.       3490.    
        3490.       3490.       3490.       3490.       3490.       3490.       3490.       3492.       3492.       3492.    
        3494.       3494.       3494.       3494.       3494.       3495.       3495.       3497.       3506.       3508.    
        3509.       3509.       3509.       3509.       3509.       3511.       3511.       3515.       3515.       3513.    
        3512.       3511.       3511.       3511.       3514.       3518.    
  70    3489.       3490.       3487.       3484.       3484.       3482.       3481.       3476.       3471.       3471.    
        3466.       3458.       3455.       3456.       3458.       3458.       3460.       3460.       3460.       3458.    
        3458.       3458.       3458.       3456.       3456.       3456.       3457.       3457.       3457.       3461.    
        3461.       3461.       3462.       3462.       3462.       3463.       3463.       3463.       3466.       3466.    
        3466.       3467.       3467.       3467.       3469.       3469.       3469.       3468.       3468.       3468.    
        3466.       3466.       3466.       3464.       3464.       3464.       3463.       3463.       3463.       3462.    
        3462.       3462.       3465.       3465.       3465.       3468.       3468.       3468.       3471.       3471.    
        3471.       3474.       3474.       3474.       3474.       3474.       3474.       3474.       3473.       3473.    
        3473.       3473.       3473.       3473.       3474.       3474.       3474.       3474.       3474.       3474.    
        3475.       3475.       3475.       3478.       3478.       3478.       3479.       3479.       3479.       3478.    
        3478.       3478.       3478.       3478.       3478.       3479.       3479.       3479.       3479.       3479.    
        3479.       3479.       3479.       3479.       3480.       3480.       3480.       3481.       3481.       3481.    
        3482.       3482.       3482.       3482.       3482.       3482.       3482.       3482.       3482.       3482.    
        3482.       3482.       3482.       3483.       3483.       3483.       3486.       3486.       3486.       3486.    
        3486.       3486.       3486.       3486.       3486.       3487.       3487.       3487.       3490.       3490.    
        3490.       3490.       3490.       3490.       3490.       3490.       3490.       3492.       3492.       3492.    
        3494.       3494.       3494.       3494.       3494.       3495.       3495.       3497.       3506.       3508.    
        3509.       3509.       3509.       3509.       3509.       3511.       3511.       3515.       3515.       3513.    
        3512.       3511.       3511.       3511.       3514.       3518.    
  71    3490.       3490.       3489.       3485.       3485.       3485.       3482.       3479.       3474.       3474.    
        3470.       3461.       3458.       3460.       3460.       3460.       3462.       3462.       3462.       3459.    
        3459.       3459.       3459.       3457.       3457.       3457.       3458.       3458.       3458.       3463.    
        3463.       3463.       3462.       3462.       3462.       3462.       3462.       3462.       3466.       3466.    
        3466.       3465.       3465.       3465.       3465.       3465.       3465.       3466.       3466.       3466.    
        3466.       3466.       3466.       3463.       3463.       3463.       3464.       3464.       3464.       3466.    
        3466.       3466.       3470.       3470.       3470.       3474.       3474.       3474.       3477.       3477.    
        3477.       3478.       3478.       3478.       3478.       3478.       3478.       3478.       3480.       3480.    
        3480.       3481.       3481.       3481.       3482.       3482.       3482.       3482.       3482.       3482.    
        3482.       3482.       3482.       3481.       3481.       3481.       3482.       3482.       3482.       3481.    
        3481.       3481.       3481.       3481.       3481.       3482.       3482.       3482.       3484.       3484.    
        3484.       3486.       3486.       3486.       3486.       3486.       3486.       3486.       3486.       3486.    
        3486.       3486.       3486.       3487.       3487.       3487.       3488.       3488.       3488.       3487.    
        3487.       3487.       3487.       3487.       3487.       3487.       3487.       3487.       3487.       3490.    
        3490.       3490.       3493.       3493.       3493.       3494.       3494.       3494.       3494.       3494.    
        3494.       3494.       3494.       3494.       3495.       3495.       3495.       3496.       3496.       3496.    
        3498.       3498.       3498.       3501.       3501.       3504.       3504.       3506.       3506.       3510.    
        3511.       3511.       3510.       3510.       3510.       3512.       3512.       3516.       3517.       3518.    
        3516.       3515.       3515.       3518.       3523.       3526.    
  72    3490.       3490.       3489.       3485.       3485.       3485.       3482.       3479.       3474.       3474.    
        3470.       3461.       3458.       3460.       3460.       3460.       3462.       3462.       3462.       3459.    
        3459.       3459.       3459.       3457.       3457.       3457.       3458.       3458.       3458.       3463.    
        3463.       3463.       3462.       3462.       3462.       3462.       3462.       3462.       3466.       3466.    
        3466.       3465.       3465.       3465.       3465.       3465.       3465.       3466.       3466.       3466.    
        3466.       3466.       3466.       3463.       3463.       3463.       3464.       3464.       3464.       3466.    
        3466.       3466.       3470.       3470.       3470.       3474.       3474.       3474.       3477.       3477.    
        3477.       3478.       3478.       3478.       3478.       3478.       3478.       3478.       3480.       3480.    
        3480.       3481.       3481.       3481.       3482.       3482.       3482.       3482.       3482.       3482.    
        3482.       3482.       3482.       3481.       3481.       3481.       3482.       3482.       3482.       3481.    
        3481.       3481.       3481.       3481.       3481.       3482.       3482.       3482.       3484.       3484.    
        3484.       3486.       3486.       3486.       3486.       3486.       3486.       3486.       3486.       3486.    
        3486.       3486.       3486.       3487.       3487.       3487.       3488.       3488.       3488.       3487.    
        3487.       3487.       3487.       3487.       3487.       3487.       3487.       3487.       3487.       3490.    
        3490.       3490.       3493.       3493.       3493.       3494.       3494.       3494.       3494.       3494.    
        3494.       3494.       3494.       3494.       3495.       3495.       3495.       3496.       3496.       3496.    
        3498.       3498.       3498.       3501.       3501.       3504.       3504.       3506.       3506.       3510.    
        3511.       3511.       3510.       3510.       3510.       3512.       3512.       3516.       3517.       3518.    
        3516.       3515.       3515.       3518.       3523.       3526.    
  73    3490.       3490.       3489.       3485.       3485.       3485.       3482.       3479.       3474.       3474.    
        3470.       3461.       3458.       3460.       3460.       3460.       3462.       3462.       3462.       3459.    
        3459.       3459.       3459.       3457.       3457.       3457.       3458.       3458.       3458.       3463.    
        3463.       3463.       3462.       3462.       3462.       3462.       3462.       3462.       3466.       3466.    
        3466.       3465.       3465.       3465.       3465.       3465.       3465.       3466.       3466.       3466.    
        3466.       3466.       3466.       3463.       3463.       3463.       3464.       3464.       3464.       3466.    
        3466.       3466.       3470.       3470.       3470.       3474.       3474.       3474.       3477.       3477.    
        3477.       3478.       3478.       3478.       3478.       3478.       3478.       3478.       3480.       3480.    
        3480.       3481.       3481.       3481.       3482.       3482.       3482.       3482.       3482.       3482.    
        3482.       3482.       3482.       3481.       3481.       3481.       3482.       3482.       3482.       3481.    
        3481.       3481.       3481.       3481.       3481.       3482.       3482.       3482.       3484.       3484.    
        3484.       3486.       3486.       3486.       3486.       3486.       3486.       3486.       3486.       3486.    
        3486.       3486.       3486.       3487.       3487.       3487.       3488.       3488.       3488.       3487.    
        3487.       3487.       3487.       3487.       3487.       3487.       3487.       3487.       3487.       3490.    
        3490.       3490.       3493.       3493.       3493.       3494.       3494.       3494.       3494.       3494.    
        3494.       3494.       3494.       3494.       3495.       3495.       3495.       3496.       3496.       3496.    
        3498.       3498.       3498.       3501.       3501.       3504.       3504.       3506.       3506.       3510.    
        3511.       3511.       3510.       3510.       3510.       3512.       3512.       3516.       3517.       3518.    
        3516.       3515.       3515.       3518.       3523.       3526.    
  74    3494.       3491.       3490.       3488.       3488.       3486.       3485.       3482.       3478.       3478.    
        3474.       3467.       3462.       3462.       3462.       3462.       3459.       3459.       3459.       3461.    
        3461.       3461.       3461.       3460.       3460.       3460.       3459.       3459.       3459.       3463.    
        3463.       3463.       3465.       3465.       3465.       3466.       3466.       3466.       3465.       3465.    
        3465.       3466.       3466.       3466.       3466.       3466.       3466.       3466.       3466.       3466.    
        3466.       3466.       3466.       3466.       3466.       3466.       3467.       3467.       3467.       3470.    
        3470.       3470.       3475.       3475.       3475.       3480.       3480.       3480.       3482.       3482.    
        3482.       3486.       3486.       3486.       3486.       3487.       3487.       3487.       3488.       3488.    
        3488.       3490.       3490.       3490.       3490.       3490.       3490.       3490.       3490.       3490.    
        3490.       3490.       3490.       3490.       3490.       3490.       3490.       3490.       3490.       3492.    
        3492.       3492.       3491.       3491.       3491.       3493.       3493.       3493.       3492.       3492.    
        3492.       3493.       3493.       3493.       3493.       3493.       3493.       3494.       3494.       3494.    
        3494.       3494.       3494.       3496.       3496.       3496.       3498.       3498.       3498.       3497.    
        3497.       3497.       3497.       3496.       3496.       3496.       3496.       3496.       3496.       3498.    
        3498.       3498.       3501.       3501.       3501.       3502.       3502.       3502.       3502.       3502.    
        3502.       3502.       3502.       3502.       3502.       3502.       3502.       3503.       3503.       3503.    
        3503.       3503.       3503.       3504.       3504.       3507.       3507.       3510.       3510.       3510.    
        3514.       3514.       3515.       3516.       3516.       3516.       3516.       3516.       3517.       3518.    
        3518.       3518.       3518.       3521.       3524.       3526.    
  75    3494.       3491.       3490.       3488.       3488.       3486.       3485.       3482.       3478.       3478.    
        3474.       3467.       3462.       3462.       3462.       3462.       3459.       3459.       3459.       3461.    
        3461.       3461.       3461.       3460.       3460.       3460.       3459.       3459.       3459.       3463.    
        3463.       3463.       3465.       3465.       3465.       3466.       3466.       3466.       3465.       3465.    
        3465.       3466.       3466.       3466.       3466.       3466.       3466.       3466.       3466.       3466.    
        3466.       3466.       3466.       3466.       3466.       3466.       3467.       3467.       3467.       3470.    
        3470.       3470.       3475.       3475.       3475.       3480.       3480.       3480.       3482.       3482.    
        3482.       3486.       3486.       3486.       3486.       3487.       3487.       3487.       3488.       3488.    
        3488.       3490.       3490.       3490.       3490.       3490.       3490.       3490.       3490.       3490.    
        3490.       3490.       3490.       3490.       3490.       3490.       3490.       3490.       3490.       3492.    
        3492.       3492.       3491.       3491.       3491.       3493.       3493.       3493.       3492.       3492.    
        3492.       3493.       3493.       3493.       3493.       3493.       3493.       3494.       3494.       3494.    
        3494.       3494.       3494.       3496.       3496.       3496.       3498.       3498.       3498.       3497.    
        3497.       3497.       3497.       3496.       3496.       3496.       3496.       3496.       3496.       3498.    
        3498.       3498.       3501.       3501.       3501.       3502.       3502.       3502.       3502.       3502.    
        3502.       3502.       3502.       3502.       3502.       3502.       3502.       3503.       3503.       3503.    
        3503.       3503.       3503.       3504.       3504.       3507.       3507.       3510.       3510.       3510.    
        3514.       3514.       3515.       3516.       3516.       3516.       3516.       3516.       3517.       3518.    
        3518.       3518.       3518.       3521.       3524.       3526.    
  76    3498.       3496.       3493.       3490.       3490.       3488.       3486.       3484.       3480.       3480.    
        3476.       3471.       3466.       3464.       3462.       3462.       3456.       3456.       3456.       3460.    
        3460.       3460.       3460.       3460.       3460.       3460.       3461.       3461.       3461.       3462.    
        3462.       3462.       3463.       3463.       3463.       3463.       3463.       3463.       3465.       3465.    
        3465.       3467.       3467.       3467.       3467.       3467.       3467.       3467.       3467.       3467.    
        3467.       3467.       3467.       3469.       3469.       3469.       3471.       3471.       3471.       3476.    
        3476.       3476.       3482.       3482.       3482.       3486.       3486.       3486.       3486.       3486.    
        3486.       3488.       3488.       3488.       3488.       3490.       3490.       3490.       3491.       3491.    
        3491.       3490.       3490.       3490.       3491.       3491.       3491.       3494.       3494.       3494.    
        3494.       3494.       3494.       3494.       3494.       3494.       3494.       3494.       3494.       3496.    
        3496.       3496.       3498.       3498.       3498.       3498.       3498.       3498.       3497.       3497.    
        3497.       3496.       3496.       3496.       3498.       3498.       3498.       3498.       3498.       3498.    
        3498.       3498.       3498.       3500.       3500.       3500.       3502.       3502.       3502.       3501.    
        3501.       3501.       3501.       3501.       3501.       3501.       3502.       3502.       3502.       3502.    
        3502.       3502.       3503.       3503.       3503.       3505.       3505.       3505.       3507.       3507.    
        3507.       3507.       3507.       3507.       3508.       3508.       3508.       3509.       3509.       3509.    
        3508.       3508.       3508.       3507.       3507.       3508.       3508.       3511.       3512.       3514.    
        3514.       3514.       3520.       3522.       3521.       3520.       3520.       3519.       3518.       3519.    
        3520.       3521.       3521.       3523.       3526.       3526.    
  77    3498.       3496.       3493.       3490.       3490.       3488.       3486.       3484.       3480.       3480.    
        3476.       3471.       3466.       3464.       3462.       3462.       3456.       3456.       3456.       3460.    
        3460.       3460.       3460.       3460.       3460.       3460.       3461.       3461.       3461.       3462.    
        3462.       3462.       3463.       3463.       3463.       3463.       3463.       3463.       3465.       3465.    
        3465.       3467.       3467.       3467.       3467.       3467.       3467.       3467.       3467.       3467.    
        3467.       3467.       3467.       3469.       3469.       3469.       3471.       3471.       3471.       3476.    
        3476.       3476.       3482.       3482.       3482.       3486.       3486.       3486.       3486.       3486.    
        3486.       3488.       3488.       3488.       3488.       3490.       3490.       3490.       3491.       3491.    
        3491.       3490.       3490.       3490.       3491.       3491.       3491.       3494.       3494.       3494.    
        3494.       3494.       3494.       3494.       3494.       3494.       3494.       3494.       3494.       3496.    
        3496.       3496.       3498.       3498.       3498.       3498.       3498.       3498.       3497.       3497.    
        3497.       3496.       3496.       3496.       3498.       3498.       3498.       3498.       3498.       3498.    
        3498.       3498.       3498.       3500.       3500.       3500.       3502.       3502.       3502.       3501.    
        3501.       3501.       3501.       3501.       3501.       3501.       3502.       3502.       3502.       3502.    
        3502.       3502.       3503.       3503.       3503.       3505.       3505.       3505.       3507.       3507.    
        3507.       3507.       3507.       3507.       3508.       3508.       3508.       3509.       3509.       3509.    
        3508.       3508.       3508.       3507.       3507.       3508.       3508.       3511.       3512.       3514.    
        3514.       3514.       3520.       3522.       3521.       3520.       3520.       3519.       3518.       3519.    
        3520.       3521.       3521.       3523.       3526.       3526.    
  78    3497.       3494.       3491.       3490.       3490.       3489.       3485.       3482.       3480.       3480.    
        3477.       3474.       3467.       3466.       3466.       3466.       3463.       3463.       3463.       3461.    
        3461.       3461.       3461.       3459.       3459.       3459.       3460.       3460.       3460.       3464.    
        3464.       3464.       3463.       3463.       3463.       3462.       3462.       3462.       3465.       3465.    
        3465.       3469.       3469.       3469.       3470.       3470.       3470.       3470.       3470.       3470.    
        3468.       3468.       3468.       3471.       3471.       3471.       3474.       3474.       3474.       3479.    
        3479.       3479.       3483.       3483.       3483.       3488.       3488.       3488.       3489.       3489.    
        3489.       3489.       3489.       3489.       3489.       3490.       3490.       3490.       3492.       3492.    
        3492.       3492.       3492.       3492.       3494.       3494.       3494.       3494.       3494.       3494.    
        3492.       3492.       3492.       3492.       3492.       3492.       3494.       3494.       3494.       3496.    
        3496.       3496.       3499.       3499.       3499.       3501.       3501.       3501.       3499.       3499.    
        3499.       3498.       3498.       3498.       3497.       3497.       3497.       3498.       3498.       3498.    
        3500.       3500.       3500.       3502.       3502.       3502.       3502.       3502.       3502.       3502.    
        3502.       3502.       3502.       3502.       3502.       3502.       3503.       3503.       3503.       3504.    
        3504.       3504.       3506.       3506.       3506.       3509.       3509.       3509.       3510.       3510.    
        3510.       3510.       3510.       3510.       3510.       3510.       3510.       3510.       3510.       3510.    
        3510.       3510.       3510.       3511.       3511.       3512.       3512.       3515.       3519.       3519.    
        3520.       3520.       3520.       3524.       3522.       3523.       3523.       3522.       3522.       3524.    
        3526.       3529.       3529.       3530.       3530.       3531.    
  79    3497.       3494.       3492.       3492.       3492.       3492.       3490.       3484.       3481.       3481.    
        3478.       3475.       3470.       3466.       3463.       3463.       3458.       3458.       3458.       3458.    
        3458.       3458.       3458.       3460.       3460.       3460.       3460.       3460.       3460.       3458.    
        3458.       3458.       3460.       3460.       3460.       3461.       3461.       3461.       3463.       3463.    
        3463.       3468.       3468.       3468.       3470.       3470.       3470.       3469.       3469.       3469.    
        3468.       3468.       3468.       3473.       3473.       3473.       3478.       3478.       3478.       3481.    
        3481.       3481.       3484.       3484.       3484.       3489.       3489.       3489.       3491.       3491.    
        3491.       3490.       3490.       3490.       3490.       3490.       3490.       3490.       3491.       3491.    
        3491.       3493.       3493.       3493.       3494.       3494.       3494.       3495.       3495.       3495.    
        3494.       3494.       3494.       3495.       3495.       3495.       3498.       3498.       3498.       3502.    
        3502.       3502.       3503.       3503.       3503.       3506.       3506.       3506.       3506.       3506.    
        3506.       3506.       3506.       3506.       3504.       3504.       3504.       3506.       3506.       3506.    
        3505.       3505.       3505.       3504.       3504.       3504.       3504.       3504.       3504.       3505.    
        3505.       3505.       3505.       3507.       3507.       3507.       3507.       3507.       3507.       3508.    
        3508.       3508.       3510.       3510.       3510.       3513.       3513.       3513.       3513.       3513.    
        3513.       3512.       3512.       3512.       3511.       3511.       3511.       3510.       3510.       3510.    
        3510.       3510.       3510.       3511.       3511.       3515.       3515.       3521.       3523.       3522.    
        3522.       3522.       3524.       3526.       3526.       3526.       3526.       3526.       3524.       3526.    
        3527.       3529.       3529.       3530.       3530.       3530.    
  80    3500.       3498.       3495.       3494.       3494.       3493.       3491.       3485.       3482.       3482.    
        3479.       3476.       3472.       3466.       3459.       3459.       3455.       3455.       3455.       3454.    
        3454.       3454.       3454.       3458.       3458.       3458.       3459.       3459.       3459.       3460.    
        3460.       3460.       3462.       3462.       3462.       3463.       3463.       3463.       3463.       3463.    
        3463.       3465.       3465.       3465.       3467.       3467.       3467.       3466.       3466.       3466.    
        3467.       3467.       3467.       3473.       3473.       3473.       3480.       3480.       3480.       3482.    
        3482.       3482.       3484.       3484.       3484.       3486.       3486.       3486.       3489.       3489.    
        3489.       3489.       3489.       3489.       3489.       3490.       3490.       3490.       3492.       3492.    
        3492.       3492.       3492.       3492.       3494.       3494.       3494.       3495.       3495.       3495.    
        3498.       3498.       3498.       3498.       3498.       3498.       3502.       3502.       3502.       3505.    
        3505.       3505.       3506.       3506.       3506.       3508.       3508.       3508.       3511.       3511.    
        3511.       3512.       3512.       3512.       3510.       3510.       3510.       3510.       3510.       3510.    
        3508.       3508.       3508.       3506.       3506.       3506.       3505.       3505.       3505.       3507.    
        3507.       3507.       3507.       3511.       3511.       3511.       3514.       3514.       3514.       3514.    
        3514.       3514.       3516.       3516.       3516.       3517.       3517.       3517.       3517.       3517.    
        3517.       3516.       3516.       3516.       3516.       3516.       3516.       3514.       3514.       3514.    
        3516.       3516.       3516.       3518.       3518.       3520.       3520.       3523.       3525.       3524.    
        3526.       3526.       3526.       3526.       3525.       3526.       3526.       3526.       3526.       3526.    
        3527.       3530.       3530.       3531.       3531.       3530.    
  81    3503.       3502.       3498.       3494.       3494.       3492.       3490.       3486.       3482.       3482.    
        3482.       3478.       3474.       3467.       3459.       3459.       3456.       3456.       3456.       3457.    
        3457.       3457.       3457.       3456.       3456.       3456.       3460.       3460.       3460.       3462.    
        3462.       3462.       3462.       3462.       3462.       3463.       3463.       3463.       3464.       3464.    
        3464.       3466.       3466.       3466.       3466.       3466.       3466.       3466.       3466.       3466.    
        3469.       3469.       3469.       3474.       3474.       3474.       3479.       3479.       3479.       3479.    
        3479.       3479.       3481.       3481.       3481.       3484.       3484.       3484.       3486.       3486.    
        3486.       3489.       3489.       3489.       3489.       3491.       3491.       3491.       3494.       3494.    
        3494.       3494.       3494.       3494.       3494.       3494.       3494.       3497.       3497.       3497.    
        3501.       3501.       3501.       3503.       3503.       3503.       3505.       3505.       3505.       3506.    
        3506.       3506.       3508.       3508.       3508.       3512.       3512.       3512.       3515.       3515.    
        3515.       3518.       3518.       3518.       3517.       3517.       3517.       3513.       3513.       3513.    
        3513.       3513.       3513.       3513.       3513.       3513.       3515.       3515.       3515.       3517.    
        3517.       3517.       3517.       3520.       3520.       3520.       3521.       3521.       3521.       3519.    
        3519.       3519.       3518.       3518.       3518.       3519.       3519.       3519.       3522.       3522.    
        3522.       3525.       3525.       3525.       3526.       3526.       3526.       3525.       3525.       3525.    
        3523.       3523.       3523.       3522.       3522.       3522.       3522.       3523.       3524.       3524.    
        3524.       3524.       3524.       3524.       3525.       3530.       3530.       3532.       3534.       3532.    
        3531.       3534.       3534.       3535.       3536.       3537.    
  82    3503.       3502.       3498.       3494.       3494.       3492.       3490.       3486.       3482.       3482.    
        3482.       3478.       3474.       3467.       3459.       3459.       3456.       3456.       3456.       3457.    
        3457.       3457.       3457.       3456.       3456.       3456.       3460.       3460.       3460.       3462.    
        3462.       3462.       3462.       3462.       3462.       3463.       3463.       3463.       3464.       3464.    
        3464.       3466.       3466.       3466.       3466.       3466.       3466.       3466.       3466.       3466.    
        3469.       3469.       3469.       3474.       3474.       3474.       3479.       3479.       3479.       3479.    
        3479.       3479.       3481.       3481.       3481.       3484.       3484.       3484.       3486.       3486.    
        3486.       3489.       3489.       3489.       3489.       3491.       3491.       3491.       3494.       3494.    
        3494.       3494.       3494.       3494.       3494.       3494.       3494.       3497.       3497.       3497.    
        3501.       3501.       3501.       3503.       3503.       3503.       3505.       3505.       3507.       3506.    
        3506.       3506.       3508.       3508.       3508.       3512.       3512.       3512.       3515.       3515.    
        3515.       3518.       3518.       3518.       3517.       3517.       3517.       3513.       3513.       3513.    
        3513.       3513.       3513.       3513.       3513.       3513.       3515.       3515.       3527.       3517.    
        3517.       3517.       3517.       3520.       3520.       3520.       3521.       3521.       3521.       3519.    
        3519.       3519.       3518.       3518.       3518.       3519.       3519.       3519.       3522.       3522.    
        3522.       3525.       3525.       3525.       3526.       3526.       3526.       3524.       3525.       3525.    
        3523.       3523.       3523.       3522.       3522.       3522.       3522.       3523.       3524.       3524.    
        3524.       3524.       3524.       3524.       3525.       3530.       3530.       3532.       3534.       3532.    
        3531.       3534.       3534.       3535.       3536.       3537.    
  83    3502.       3501.       3498.       3494.       3494.       3491.       3489.       3486.       3483.       3483.    
        3482.       3480.       3476.       3467.       3462.       3462.       3456.       3456.       3456.       3454.    
        3454.       3454.       3454.       3457.       3457.       3457.       3461.       3461.       3461.       3462.    
        3462.       3462.       3464.       3464.       3464.       3465.       3465.       3465.       3466.       3466.    
        3466.       3467.       3467.       3467.       3468.       3468.       3468.       3469.       3469.       3469.    
        3470.       3470.       3470.       3474.       3474.       3474.       3479.       3479.       3479.       3481.    
        3481.       3481.       3479.       3479.       3479.       3480.       3480.       3480.       3483.       3483.    
        3483.       3486.       3486.       3486.       3486.       3490.       3490.       3490.       3492.       3492.    
        3492.       3494.       3494.       3494.       3496.       3496.       3496.       3500.       3500.       3500.    
        3504.       3504.       3504.       3506.       3506.       3506.       3507.       3507.       3507.       3507.    
        3507.       3507.       3508.       3508.       3508.       3513.       3513.       3513.       3517.       3517.    
        3517.       3519.       3519.       3519.       3521.       3521.       3521.       3520.       3520.       3520.    
        3520.       3520.       3520.       3524.       3524.       3524.       3527.       3527.       3527.       3530.    
        3530.       3530.       3530.       3528.       3528.       3528.       3526.       3526.       3526.       3524.    
        3524.       3524.       3522.       3522.       3522.       3525.       3525.       3525.       3527.       3527.    
        3527.       3526.       3526.       3526.       3525.       3525.       3525.       3524.       3524.       3524.    
        3522.       3522.       3522.       3522.       3522.       3523.       3523.       3523.       3524.       3523.    
        3524.       3524.       3524.       3525.       3528.       3530.       3530.       3539.       3542.       3545.    
        3545.       3546.       3546.       3547.       3549.       3549.    
  84    3502.       3499.       3496.       3493.       3493.       3490.       3487.       3486.       3482.       3482.    
        3481.       3478.       3474.       3470.       3462.       3462.       3456.       3456.       3456.       3456.    
        3456.       3456.       3456.       3458.       3458.       3458.       3461.       3461.       3461.       3462.    
        3462.       3462.       3462.       3462.       3462.       3463.       3463.       3463.       3465.       3465.    
        3465.       3468.       3468.       3468.       3469.       3469.       3469.       3470.       3470.       3470.    
        3469.       3469.       3469.       3474.       3474.       3474.       3485.       3485.       3485.       3487.    
        3487.       3487.       3483.       3483.       3483.       3480.       3480.       3480.       3481.       3481.    
        3481.       3485.       3485.       3485.       3485.       3487.       3487.       3487.       3490.       3490.    
        3490.       3490.       3490.       3490.       3494.       3494.       3494.       3498.       3498.       3498.    
        3505.       3505.       3505.       3506.       3506.       3506.       3506.       3506.       3506.       3506.    
        3506.       3506.       3508.       3508.       3508.       3512.       3512.       3512.       3516.       3516.    
        3516.       3521.       3521.       3521.       3522.       3522.       3522.       3522.       3522.       3522.    
        3522.       3522.       3522.       3523.       3523.       3523.       3525.       3525.       3525.       3526.    
        3526.       3526.       3526.       3528.       3528.       3528.       3530.       3530.       3530.       3530.    
        3530.       3530.       3530.       3530.       3530.       3531.       3531.       3531.       3533.       3533.    
        3533.       3534.       3534.       3534.       3530.       3530.       3530.       3526.       3526.       3526.    
        3524.       3524.       3524.       3523.       3523.       3522.       3522.       3522.       3525.       3526.    
        3527.       3527.       3528.       3530.       3534.       3538.       3538.       3539.       3546.       3546.    
        3548.       3550.       3550.       3552.       3550.       3550.    
  85    3502.       3500.       3497.       3494.       3494.       3490.       3487.       3485.       3482.       3482.    
        3481.       3478.       3473.       3468.       3463.       3463.       3458.       3458.       3458.       3458.    
        3458.       3458.       3458.       3463.       3463.       3463.       3460.       3460.       3460.       3459.    
        3459.       3459.       3460.       3460.       3460.       3462.       3462.       3462.       3465.       3465.    
        3465.       3469.       3469.       3469.       3469.       3469.       3469.       3468.       3468.       3468.    
        3470.       3470.       3470.       3475.       3475.       3475.       3486.       3486.       3486.       3489.    
        3489.       3489.       3491.       3491.       3491.       3486.       3486.       3486.       3484.       3484.    
        3484.       3487.       3487.       3487.       3487.       3489.       3489.       3489.       3489.       3489.    
        3489.       3489.       3489.       3489.       3492.       3492.       3492.       3496.       3496.       3496.    
        3502.       3502.       3502.       3506.       3506.       3506.       3506.       3506.       3506.       3506.    
        3506.       3506.       3510.       3510.       3510.       3514.       3514.       3514.       3518.       3518.    
        3518.       3519.       3519.       3519.       3522.       3522.       3522.       3526.       3526.       3526.    
        3527.       3527.       3527.       3526.       3526.       3526.       3526.       3526.       3526.       3529.    
        3529.       3529.       3529.       3531.       3531.       3531.       3534.       3534.       3534.       3534.    
        3534.       3534.       3534.       3534.       3534.       3535.       3535.       3535.       3540.       3540.    
        3540.       3541.       3541.       3541.       3540.       3540.       3540.       3535.       3535.       3535.    
        3531.       3531.       3531.       3530.       3530.       3530.       3530.       3529.       3530.       3531.    
        3531.       3531.       3534.       3537.       3540.       3544.       3544.       3546.       3546.       3550.    
        3550.       3551.       3551.       3553.       3554.       3554.    
  86    3506.       3500.       3497.       3495.       3495.       3493.       3489.       3485.       3481.       3481.    
        3477.       3473.       3468.       3464.       3461.       3461.       3461.       3461.       3461.       3464.    
        3464.       3464.       3464.       3464.       3464.       3464.       3462.       3462.       3462.       3459.    
        3459.       3459.       3460.       3460.       3460.       3462.       3462.       3462.       3466.       3466.    
        3466.       3467.       3467.       3467.       3467.       3467.       3467.       3466.       3466.       3466.    
        3470.       3470.       3470.       3474.       3474.       3474.       3484.       3484.       3484.       3496.    
        3496.       3496.       3497.       3497.       3497.       3493.       3493.       3493.       3489.       3489.    
        3489.       3490.       3490.       3490.       3490.       3490.       3490.       3490.       3490.       3490.    
        3490.       3492.       3492.       3492.       3493.       3493.       3493.       3494.       3494.       3494.    
        3498.       3498.       3498.       3502.       3502.       3502.       3506.       3506.       3506.       3509.    
        3509.       3509.       3515.       3515.       3515.       3522.       3522.       3522.       3523.       3523.    
        3523.       3522.       3522.       3522.       3525.       3525.       3525.       3528.       3528.       3528.    
        3530.       3530.       3530.       3530.       3530.       3530.       3531.       3531.       3531.       3533.    
        3533.       3533.       3533.       3534.       3534.       3534.       3536.       3536.       3536.       3535.    
        3535.       3535.       3535.       3535.       3535.       3538.       3538.       3538.       3540.       3540.    
        3540.       3540.       3540.       3540.       3542.       3542.       3542.       3542.       3542.       3542.    
        3539.       3539.       3539.       3537.       3537.       3534.       3534.       3534.       3534.       3537.    
        3538.       3538.       3539.       3541.       3541.       3542.       3542.       3547.       3550.       3550.    
        3550.       3551.       3551.       3553.       3554.       3554.    
  87    3506.       3500.       3497.       3495.       3495.       3493.       3489.       3485.       3481.       3481.    
        3477.       3473.       3468.       3464.       3461.       3461.       3461.       3461.       3461.       3464.    
        3464.       3464.       3464.       3464.       3464.       3464.       3462.       3462.       3462.       3459.    
        3459.       3459.       3460.       3460.       3460.       3462.       3462.       3462.       3466.       3466.    
        3466.       3467.       3467.       3467.       3467.       3467.       3467.       3466.       3466.       3466.    
        3470.       3470.       3470.       3474.       3474.       3474.       3484.       3484.       3484.       3496.    
        3496.       3496.       3497.       3497.       3497.       3493.       3493.       3493.       3489.       3489.    
        3489.       3490.       3490.       3490.       3490.       3490.       3490.       3490.       3490.       3490.    
        3490.       3492.       3492.       3492.       3493.       3493.       3493.       3494.       3494.       3494.    
        3498.       3498.       3498.       3502.       3502.       3502.       3506.       3506.       3506.       3509.    
        3509.       3509.       3515.       3515.       3515.       3522.       3522.       3522.       3523.       3523.    
        3523.       3522.       3522.       3522.       3525.       3525.       3525.       3528.       3528.       3528.    
        3530.       3530.       3530.       3530.       3530.       3530.       3531.       3531.       3531.       3533.    
        3533.       3533.       3533.       3534.       3534.       3534.       3536.       3536.       3536.       3535.    
        3535.       3535.       3535.       3535.       3535.       3538.       3538.       3538.       3540.       3540.    
        3540.       3540.       3540.       3540.       3542.       3542.       3542.       3542.       3542.       3542.    
        3539.       3539.       3539.       3537.       3537.       3534.       3534.       3534.       3534.       3537.    
        3538.       3538.       3539.       3541.       3541.       3542.       3542.       3547.       3550.       3550.    
        3550.       3551.       3551.       3553.       3554.       3554.    
  88    3508.       3502.       3499.       3497.       3497.       3494.       3490.       3486.       3481.       3481.    
        3476.       3473.       3466.       3464.       3465.       3465.       3460.       3460.       3460.       3463.    
        3463.       3463.       3463.       3466.       3466.       3466.       3464.       3464.       3464.       3461.    
        3461.       3461.       3462.       3462.       3462.       3464.       3464.       3464.       3465.       3465.    
        3465.       3469.       3469.       3469.       3468.       3468.       3468.       3469.       3469.       3469.    
        3470.       3470.       3470.       3474.       3474.       3474.       3485.       3485.       3485.       3496.    
        3496.       3496.       3497.       3497.       3497.       3493.       3493.       3493.       3493.       3493.    
        3493.       3492.       3492.       3492.       3492.       3490.       3490.       3490.       3490.       3490.    
        3490.       3490.       3490.       3490.       3492.       3492.       3492.       3493.       3493.       3493.    
        3494.       3494.       3494.       3496.       3496.       3496.       3501.       3501.       3501.       3509.    
        3509.       3509.       3517.       3517.       3517.       3522.       3522.       3522.       3525.       3525.    
        3525.       3526.       3526.       3526.       3527.       3527.       3527.       3528.       3528.       3528.    
        3528.       3528.       3528.       3529.       3529.       3529.       3530.       3530.       3530.       3530.    
        3530.       3530.       3530.       3531.       3531.       3531.       3534.       3534.       3534.       3537.    
        3537.       3537.       3537.       3537.       3537.       3538.       3538.       3538.       3538.       3538.    
        3538.       3540.       3540.       3540.       3542.       3542.       3542.       3544.       3544.       3544.    
        3544.       3544.       3544.       3542.       3542.       3542.       3542.       3538.       3536.       3537.    
        3538.       3538.       3541.       3542.       3542.       3542.       3542.       3545.       3547.       3549.    
        3553.       3555.       3555.       3556.       3554.       3554.    
  89    3507.       3502.       3498.       3494.       3494.       3492.       3489.       3485.       3480.       3480.    
        3475.       3471.       3470.       3466.       3466.       3466.       3465.       3465.       3465.       3466.    
        3466.       3466.       3466.       3462.       3462.       3462.       3462.       3462.       3462.       3462.    
        3462.       3462.       3463.       3463.       3463.       3463.       3463.       3463.       3466.       3466.    
        3466.       3467.       3467.       3467.       3474.       3474.       3474.       3474.       3474.       3474.    
        3474.       3474.       3474.       3477.       3477.       3477.       3483.       3483.       3483.       3494.    
        3494.       3494.       3497.       3497.       3497.       3498.       3498.       3498.       3497.       3497.    
        3497.       3494.       3494.       3494.       3494.       3491.       3491.       3491.       3491.       3491.    
        3491.       3490.       3490.       3490.       3490.       3490.       3490.       3490.       3490.       3490.    
        3492.       3492.       3492.       3497.       3497.       3497.       3501.       3501.       3501.       3505.    
        3505.       3505.       3513.       3513.       3513.       3521.       3521.       3521.       3525.       3525.    
        3525.       3525.       3525.       3525.       3529.       3529.       3529.       3529.       3529.       3529.    
        3527.       3527.       3527.       3526.       3526.       3526.       3527.       3527.       3527.       3529.    
        3529.       3529.       3529.       3533.       3533.       3533.       3535.       3535.       3535.       3537.    
        3537.       3537.       3538.       3538.       3538.       3538.       3538.       3538.       3539.       3539.    
        3539.       3542.       3542.       3542.       3542.       3542.       3542.       3546.       3546.       3546.    
        3549.       3549.       3549.       3546.       3546.       3544.       3544.       3542.       3542.       3542.    
        3539.       3539.       3539.       3541.       3542.       3544.       3544.       3547.       3550.       3553.    
        3553.       3557.       3557.       3560.       3558.       3558.    



             MODEL LAYER BOTTOM EL. FOR LAYER   2
 READING ON UNIT   12 WITH FORMAT: (FREE)              

            1           2           3           4           5           6           7           8           9          10
           11          12          13          14          15          16          17          18          19          20
           21          22          23          24          25          26          27          28          29          30
           31          32          33          34          35          36          37          38          39          40
           41          42          43          44          45          46          47          48          49          50
           51          52          53          54          55          56          57          58          59          60
           61          62          63          64          65          66          67          68          69          70
           71          72          73          74          75          76          77          78          79          80
           81          82          83          84          85          86          87          88          89          90
           91          92          93          94          95          96          97          98          99         100
          101         102         103         104         105         106         107         108         109         110
          111         112         113         114         115         116         117         118         119         120
          121         122         123         124         125         126         127         128         129         130
          131         132         133         134         135         136         137         138         139         140
          141         142         143         144         145         146         147         148         149         150
          151         152         153         154         155         156         157         158         159         160
          161         162         163         164         165         166         167         168         169         170
          171         172         173         174         175         176         177         178         179         180
          181         182         183         184         185         186
 ........................................................................................................................
   1    3407.       3410.       3412.       3411.       3411.       3408.       3410.       3410.       3410.       3410.    
        3407.       3406.       3407.       3411.       3415.       3415.       3418.       3418.       3418.       3421.    
        3421.       3421.       3421.       3421.       3421.       3421.       3428.       3428.       3428.       3433.    
        3433.       3433.       3439.       3439.       3439.       3437.       3437.       3437.       3437.       3437.    
        3437.       3439.       3439.       3439.       3438.       3438.       3438.       3438.       3438.       3438.    
        3437.       3437.       3437.       3438.       3438.       3438.       3439.       3439.       3439.       3439.    
        3439.       3439.       3439.       3439.       3439.       3440.       3440.       3440.       3441.       3441.    
        3441.       3441.       3441.       3441.       3441.       3441.       3441.       3441.       3443.       3443.    
        3443.       3443.       3443.       3443.       3444.       3444.       3444.       3443.       3443.       3443.    
        3443.       3443.       3443.       3445.       3445.       3445.       3447.       3447.       3447.       3451.    
        3451.       3451.       3454.       3454.       3454.       3457.       3457.       3457.       3461.       3461.    
        3461.       3465.       3465.       3465.       3470.       3470.       3470.       3473.       3473.       3473.    
        3475.       3475.       3475.       3475.       3475.       3475.       3475.       3475.       3475.       3475.    
        3475.       3475.       3475.       3474.       3474.       3474.       3475.       3475.       3475.       3477.    
        3477.       3477.       3477.       3477.       3477.       3478.       3478.       3478.       3479.       3479.    
        3479.       3479.       3479.       3479.       3480.       3480.       3480.       3478.       3478.       3478.    
        3477.       3477.       3477.       3477.       3477.       3478.       3478.       3478.       3478.       3479.    
        3479.       3479.       3480.       3482.       3483.       3484.       3484.       3485.       3485.       3487.    
        3487.       3486.       3486.       3485.       3488.       3489.    
   2    3408.       3408.       3412.       3413.       3413.       3410.       3409.       3408.       3409.       3409.    
        3407.       3407.       3409.       3413.       3418.       3418.       3418.       3418.       3418.       3419.    
        3419.       3419.       3419.       3421.       3421.       3421.       3425.       3425.       3425.       3430.    
        3430.       3430.       3435.       3435.       3435.       3437.       3437.       3437.       3438.       3438.    
        3438.       3438.       3438.       3438.       3437.       3437.       3437.       3437.       3437.       3437.    
        3437.       3437.       3437.       3438.       3438.       3438.       3438.       3438.       3438.       3439.    
        3439.       3439.       3439.       3439.       3439.       3440.       3440.       3440.       3440.       3440.    
        3440.       3440.       3440.       3440.       3440.       3442.       3442.       3442.       3442.       3442.    
        3442.       3443.       3443.       3443.       3443.       3443.       3443.       3443.       3443.       3443.    
        3442.       3442.       3442.       3444.       3444.       3444.       3446.       3446.       3446.       3447.    
        3447.       3447.       3449.       3449.       3449.       3452.       3452.       3452.       3458.       3458.    
        3458.       3465.       3465.       3465.       3471.       3471.       3471.       3473.       3473.       3473.    
        3474.       3474.       3474.       3473.       3473.       3473.       3473.       3473.       3473.       3475.    
        3475.       3475.       3475.       3475.       3475.       3475.       3476.       3476.       3476.       3478.    
        3478.       3478.       3478.       3478.       3478.       3478.       3478.       3478.       3478.       3478.    
        3478.       3478.       3478.       3478.       3479.       3479.       3479.       3478.       3478.       3478.    
        3477.       3477.       3477.       3477.       3477.       3479.       3479.       3479.       3479.       3479.    
        3479.       3479.       3481.       3481.       3482.       3482.       3482.       3483.       3483.       3483.    
        3485.       3487.       3487.       3487.       3489.       3490.    
   3    3408.       3406.       3411.       3410.       3410.       3408.       3408.       3408.       3407.       3407.    
        3407.       3409.       3411.       3415.       3418.       3418.       3418.       3418.       3418.       3418.    
        3418.       3418.       3418.       3420.       3420.       3420.       3423.       3423.       3423.       3426.    
        3426.       3426.       3430.       3430.       3430.       3434.       3434.       3434.       3437.       3437.    
        3437.       3437.       3437.       3437.       3439.       3439.       3439.       3439.       3439.       3439.    
        3437.       3437.       3437.       3437.       3437.       3437.       3437.       3437.       3437.       3437.    
        3437.       3437.       3439.       3439.       3439.       3440.       3440.       3440.       3440.       3440.    
        3440.       3440.       3440.       3440.       3440.       3441.       3441.       3441.       3441.       3441.    
        3441.       3442.       3442.       3442.       3443.       3443.       3443.       3441.       3441.       3441.    
        3440.       3440.       3440.       3443.       3443.       3443.       3445.       3445.       3445.       3445.    
        3445.       3445.       3445.       3445.       3445.       3447.       3447.       3447.       3452.       3452.    
        3452.       3459.       3459.       3459.       3467.       3467.       3467.       3472.       3472.       3472.    
        3472.       3472.       3472.       3471.       3471.       3471.       3471.       3471.       3471.       3473.    
        3473.       3473.       3473.       3474.       3474.       3474.       3475.       3475.       3475.       3475.    
        3475.       3475.       3476.       3476.       3476.       3476.       3476.       3476.       3477.       3477.    
        3477.       3478.       3478.       3478.       3478.       3478.       3478.       3477.       3477.       3477.    
        3478.       3478.       3478.       3478.       3478.       3478.       3478.       3478.       3478.       3478.    
        3478.       3478.       3478.       3479.       3480.       3482.       3482.       3484.       3484.       3485.    
        3487.       3488.       3488.       3488.       3490.       3490.    
   4    3408.       3406.       3410.       3409.       3409.       3408.       3408.       3408.       3408.       3408.    
        3408.       3409.       3410.       3413.       3417.       3417.       3418.       3418.       3418.       3418.    
        3418.       3418.       3418.       3421.       3421.       3421.       3424.       3424.       3424.       3424.    
        3424.       3424.       3425.       3425.       3425.       3430.       3430.       3430.       3434.       3434.    
        3434.       3438.       3438.       3438.       3439.       3439.       3439.       3439.       3439.       3439.    
        3439.       3439.       3439.       3439.       3439.       3439.       3439.       3439.       3439.       3439.    
        3439.       3439.       3439.       3439.       3439.       3440.       3440.       3440.       3441.       3441.    
        3441.       3441.       3441.       3441.       3441.       3440.       3440.       3440.       3441.       3441.    
        3441.       3442.       3442.       3442.       3442.       3442.       3442.       3441.       3441.       3441.    
        3440.       3440.       3440.       3443.       3443.       3443.       3446.       3446.       3446.       3446.    
        3446.       3446.       3445.       3445.       3445.       3445.       3445.       3445.       3448.       3448.    
        3448.       3451.       3451.       3451.       3454.       3454.       3454.       3460.       3460.       3460.    
        3466.       3466.       3466.       3469.       3469.       3469.       3471.       3471.       3471.       3472.    
        3472.       3472.       3472.       3472.       3472.       3472.       3472.       3472.       3472.       3473.    
        3473.       3473.       3475.       3475.       3475.       3475.       3475.       3475.       3477.       3477.    
        3477.       3479.       3479.       3479.       3479.       3479.       3479.       3478.       3478.       3478.    
        3478.       3478.       3478.       3479.       3479.       3479.       3479.       3478.       3477.       3478.    
        3478.       3478.       3479.       3479.       3479.       3480.       3480.       3481.       3481.       3482.    
        3484.       3485.       3485.       3487.       3488.       3488.    
   5    3408.       3406.       3410.       3409.       3409.       3408.       3408.       3408.       3408.       3408.    
        3408.       3409.       3410.       3413.       3417.       3417.       3418.       3418.       3418.       3418.    
        3418.       3418.       3418.       3421.       3421.       3421.       3424.       3424.       3424.       3424.    
        3424.       3424.       3425.       3425.       3425.       3430.       3430.       3430.       3434.       3434.    
        3434.       3438.       3438.       3438.       3439.       3439.       3439.       3439.       3439.       3439.    
        3439.       3439.       3439.       3439.       3439.       3439.       3439.       3439.       3439.       3439.    
        3439.       3439.       3439.       3439.       3439.       3440.       3440.       3440.       3441.       3441.    
        3441.       3441.       3441.       3441.       3441.       3440.       3440.       3440.       3441.       3441.    
        3441.       3442.       3442.       3442.       3442.       3442.       3442.       3441.       3441.       3441.    
        3440.       3440.       3440.       3443.       3443.       3443.       3446.       3446.       3446.       3446.    
        3446.       3446.       3445.       3445.       3445.       3445.       3445.       3445.       3448.       3448.    
        3448.       3451.       3451.       3451.       3454.       3454.       3454.       3460.       3460.       3460.    
        3466.       3466.       3466.       3469.       3469.       3469.       3471.       3471.       3471.       3472.    
        3472.       3472.       3472.       3472.       3472.       3472.       3472.       3472.       3472.       3473.    
        3473.       3473.       3475.       3475.       3475.       3475.       3475.       3475.       3477.       3477.    
        3477.       3479.       3479.       3479.       3479.       3479.       3479.       3478.       3478.       3478.    
        3478.       3478.       3478.       3479.       3479.       3479.       3479.       3478.       3477.       3478.    
        3478.       3478.       3479.       3479.       3479.       3480.       3480.       3481.       3481.       3482.    
        3484.       3485.       3485.       3487.       3488.       3488.    
   6    3410.       3409.       3409.       3410.       3410.       3409.       3409.       3410.       3405.       3405.    
        3407.       3410.       3412.       3413.       3416.       3416.       3418.       3418.       3418.       3419.    
        3419.       3419.       3419.       3422.       3422.       3422.       3424.       3424.       3424.       3424.    
        3424.       3424.       3423.       3423.       3423.       3425.       3425.       3425.       3430.       3430.    
        3430.       3436.       3436.       3436.       3438.       3438.       3438.       3439.       3439.       3439.    
        3438.       3438.       3438.       3438.       3438.       3438.       3439.       3439.       3439.       3439.    
        3439.       3439.       3439.       3439.       3439.       3440.       3440.       3440.       3441.       3441.    
        3441.       3440.       3440.       3440.       3440.       3440.       3440.       3440.       3442.       3442.    
        3442.       3442.       3442.       3442.       3440.       3440.       3440.       3439.       3439.       3439.    
        3440.       3440.       3440.       3443.       3443.       3443.       3446.       3446.       3446.       3447.    
        3447.       3447.       3447.       3447.       3447.       3446.       3446.       3446.       3447.       3447.    
        3447.       3449.       3449.       3449.       3449.       3449.       3449.       3451.       3451.       3451.    
        3454.       3454.       3454.       3457.       3457.       3457.       3461.       3461.       3461.       3465.    
        3465.       3465.       3465.       3468.       3468.       3468.       3470.       3470.       3470.       3473.    
        3473.       3473.       3475.       3475.       3475.       3475.       3475.       3475.       3476.       3476.    
        3476.       3481.       3481.       3481.       3479.       3479.       3479.       3479.       3479.       3479.    
        3478.       3478.       3478.       3478.       3478.       3478.       3478.       3478.       3475.       3473.    
        3473.       3473.       3473.       3474.       3476.       3476.       3476.       3476.       3474.       3473.    
        3475.       3475.       3475.       3476.       3480.       3482.    
   7    3409.       3408.       3407.       3410.       3410.       3409.       3410.       3409.       3410.       3410.    
        3409.       3411.       3411.       3414.       3418.       3418.       3419.       3419.       3419.       3419.    
        3419.       3419.       3419.       3421.       3421.       3421.       3424.       3424.       3424.       3423.    
        3423.       3423.       3422.       3422.       3422.       3423.       3423.       3423.       3426.       3426.    
        3426.       3430.       3430.       3430.       3434.       3434.       3434.       3437.       3437.       3437.    
        3439.       3439.       3439.       3440.       3440.       3440.       3441.       3441.       3441.       3440.    
        3440.       3440.       3440.       3440.       3440.       3439.       3439.       3439.       3440.       3440.    
        3440.       3440.       3440.       3440.       3440.       3441.       3441.       3441.       3441.       3441.    
        3441.       3441.       3441.       3441.       3439.       3439.       3439.       3439.       3439.       3439.    
        3442.       3442.       3442.       3443.       3443.       3443.       3445.       3445.       3445.       3446.    
        3446.       3446.       3448.       3448.       3448.       3447.       3447.       3447.       3446.       3446.    
        3446.       3448.       3448.       3448.       3449.       3449.       3449.       3451.       3451.       3451.    
        3452.       3452.       3452.       3452.       3452.       3452.       3454.       3454.       3454.       3456.    
        3456.       3456.       3456.       3458.       3458.       3458.       3461.       3461.       3461.       3464.    
        3464.       3464.       3469.       3469.       3469.       3472.       3472.       3472.       3475.       3475.    
        3475.       3477.       3477.       3477.       3475.       3475.       3475.       3471.       3471.       3471.    
        3468.       3468.       3468.       3465.       3465.       3463.       3463.       3461.       3458.       3458.    
        3456.       3456.       3456.       3455.       3457.       3458.       3458.       3460.       3460.       3463.    
        3466.       3467.       3467.       3467.       3469.       3470.    
   8    3410.       3409.       3411.       3411.       3411.       3407.       3407.       3410.       3410.       3410.    
        3410.       3413.       3413.       3416.       3419.       3419.       3421.       3421.       3421.       3421.    
        3421.       3421.       3421.       3421.       3421.       3421.       3421.       3421.       3421.       3424.    
        3424.       3424.       3422.       3422.       3422.       3421.       3421.       3421.       3422.       3422.    
        3422.       3426.       3426.       3426.       3429.       3429.       3429.       3434.       3434.       3434.    
        3437.       3437.       3437.       3442.       3442.       3442.       3443.       3443.       3443.       3442.    
        3442.       3442.       3441.       3441.       3441.       3440.       3440.       3440.       3440.       3440.    
        3440.       3441.       3441.       3441.       3441.       3443.       3443.       3443.       3442.       3442.    
        3442.       3440.       3440.       3440.       3440.       3440.       3440.       3440.       3440.       3440.    
        3442.       3442.       3442.       3443.       3443.       3443.       3442.       3442.       3442.       3443.    
        3443.       3443.       3446.       3446.       3446.       3448.       3448.       3448.       3447.       3447.    
        3447.       3446.       3446.       3446.       3445.       3445.       3445.       3447.       3447.       3447.    
        3449.       3449.       3449.       3451.       3451.       3451.       3453.       3453.       3453.       3454.    
        3454.       3454.       3454.       3455.       3455.       3455.       3455.       3455.       3455.       3455.    
        3455.       3455.       3458.       3458.       3458.       3462.       3462.       3462.       3465.       3465.    
        3465.       3465.       3465.       3465.       3460.       3460.       3460.       3456.       3456.       3456.    
        3453.       3453.       3453.       3450.       3450.       3449.       3449.       3449.       3450.       3451.    
        3449.       3449.       3448.       3449.       3451.       3452.       3452.       3452.       3452.       3453.    
        3455.       3458.       3458.       3460.       3460.       3460.    
   9    3410.       3410.       3412.       3410.       3410.       3411.       3407.       3409.       3409.       3409.    
        3410.       3413.       3413.       3415.       3417.       3417.       3419.       3419.       3419.       3420.    
        3420.       3420.       3420.       3420.       3420.       3420.       3420.       3420.       3420.       3421.    
        3421.       3421.       3422.       3422.       3422.       3421.       3421.       3421.       3421.       3421.    
        3421.       3422.       3422.       3422.       3424.       3424.       3424.       3427.       3427.       3427.    
        3433.       3433.       3433.       3439.       3439.       3439.       3442.       3442.       3442.       3443.    
        3443.       3443.       3443.       3443.       3443.       3444.       3444.       3444.       3444.       3444.    
        3444.       3443.       3443.       3443.       3443.       3444.       3444.       3444.       3444.       3444.    
        3444.       3443.       3443.       3443.       3442.       3442.       3442.       3442.       3442.       3442.    
        3442.       3442.       3442.       3442.       3442.       3442.       3442.       3442.       3442.       3444.    
        3444.       3444.       3446.       3446.       3446.       3449.       3449.       3449.       3449.       3449.    
        3449.       3448.       3448.       3448.       3446.       3446.       3446.       3445.       3445.       3445.    
        3445.       3445.       3445.       3446.       3446.       3446.       3449.       3449.       3449.       3451.    
        3451.       3451.       3451.       3452.       3452.       3452.       3454.       3454.       3454.       3454.    
        3454.       3454.       3456.       3456.       3456.       3457.       3457.       3457.       3454.       3454.    
        3454.       3451.       3451.       3451.       3451.       3451.       3451.       3451.       3451.       3451.    
        3449.       3449.       3449.       3447.       3447.       3448.       3448.       3448.       3448.       3448.    
        3445.       3445.       3443.       3445.       3448.       3449.       3449.       3448.       3448.       3446.    
        3448.       3451.       3451.       3452.       3451.       3450.    
  10    3412.       3412.       3412.       3413.       3413.       3412.       3409.       3407.       3409.       3409.    
        3410.       3412.       3412.       3413.       3415.       3415.       3418.       3418.       3418.       3421.    
        3421.       3421.       3421.       3421.       3421.       3421.       3422.       3422.       3422.       3423.    
        3423.       3423.       3423.       3423.       3423.       3424.       3424.       3424.       3423.       3423.    
        3423.       3422.       3422.       3422.       3422.       3422.       3422.       3424.       3424.       3424.    
        3427.       3427.       3427.       3432.       3432.       3432.       3438.       3438.       3438.       3440.    
        3440.       3440.       3441.       3441.       3441.       3442.       3442.       3442.       3443.       3443.    
        3443.       3445.       3445.       3445.       3445.       3445.       3445.       3445.       3444.       3444.    
        3444.       3445.       3445.       3445.       3445.       3445.       3445.       3445.       3445.       3445.    
        3445.       3445.       3445.       3445.       3445.       3445.       3444.       3444.       3444.       3444.    
        3444.       3444.       3448.       3448.       3448.       3449.       3449.       3449.       3449.       3449.    
        3449.       3450.       3450.       3450.       3449.       3449.       3449.       3449.       3449.       3449.    
        3448.       3448.       3448.       3446.       3446.       3446.       3445.       3445.       3445.       3446.    
        3446.       3446.       3446.       3448.       3448.       3448.       3449.       3449.       3449.       3451.    
        3451.       3451.       3451.       3451.       3451.       3446.       3446.       3446.       3441.       3441.    
        3441.       3440.       3440.       3440.       3442.       3442.       3442.       3445.       3445.       3445.    
        3444.       3444.       3444.       3443.       3443.       3443.       3443.       3443.       3443.       3443.    
        3442.       3442.       3442.       3442.       3444.       3446.       3446.       3446.       3446.       3445.    
        3445.       3446.       3446.       3446.       3447.       3447.    
  11    3412.       3412.       3412.       3413.       3413.       3412.       3409.       3407.       3409.       3409.    
        3410.       3412.       3412.       3413.       3415.       3415.       3418.       3418.       3418.       3421.    
        3421.       3421.       3421.       3421.       3421.       3421.       3422.       3422.       3422.       3423.    
        3423.       3423.       3423.       3423.       3423.       3424.       3424.       3424.       3423.       3423.    
        3423.       3422.       3422.       3422.       3422.       3422.       3422.       3424.       3424.       3424.    
        3427.       3427.       3427.       3432.       3432.       3432.       3438.       3438.       3438.       3440.    
        3440.       3440.       3441.       3441.       3441.       3442.       3442.       3442.       3443.       3443.    
        3443.       3445.       3445.       3445.       3445.       3445.       3445.       3445.       3444.       3444.    
        3444.       3445.       3445.       3445.       3445.       3445.       3445.       3445.       3445.       3445.    
        3445.       3445.       3445.       3445.       3445.       3445.       3444.       3444.       3444.       3444.    
        3444.       3444.       3448.       3448.       3448.       3449.       3449.       3449.       3449.       3449.    
        3449.       3450.       3450.       3450.       3449.       3449.       3449.       3449.       3449.       3449.    
        3448.       3448.       3448.       3446.       3446.       3446.       3445.       3445.       3445.       3446.    
        3446.       3446.       3446.       3448.       3448.       3448.       3449.       3449.       3449.       3451.    
        3451.       3451.       3451.       3451.       3451.       3446.       3446.       3446.       3441.       3441.    
        3441.       3440.       3440.       3440.       3442.       3442.       3442.       3445.       3445.       3445.    
        3444.       3444.       3444.       3443.       3443.       3443.       3443.       3443.       3443.       3443.    
        3442.       3442.       3442.       3442.       3444.       3446.       3446.       3446.       3446.       3445.    
        3445.       3446.       3446.       3446.       3447.       3447.    
  12    3413.       3413.       3413.       3415.       3415.       3411.       3409.       3408.       3410.       3410.    
        3409.       3410.       3410.       3411.       3413.       3413.       3416.       3416.       3416.       3419.    
        3419.       3419.       3419.       3422.       3422.       3422.       3422.       3422.       3422.       3424.    
        3424.       3424.       3424.       3424.       3424.       3423.       3423.       3423.       3424.       3424.    
        3424.       3424.       3424.       3424.       3423.       3423.       3423.       3424.       3424.       3424.    
        3425.       3425.       3425.       3427.       3427.       3427.       3430.       3430.       3430.       3434.    
        3434.       3434.       3438.       3438.       3438.       3440.       3440.       3440.       3441.       3441.    
        3441.       3442.       3442.       3442.       3442.       3443.       3443.       3443.       3443.       3443.    
        3443.       3443.       3443.       3443.       3444.       3444.       3444.       3443.       3443.       3443.    
        3444.       3444.       3444.       3445.       3445.       3445.       3445.       3445.       3445.       3445.    
        3445.       3445.       3448.       3448.       3448.       3446.       3446.       3446.       3447.       3447.    
        3447.       3448.       3448.       3448.       3448.       3448.       3448.       3447.       3447.       3447.    
        3446.       3446.       3446.       3446.       3446.       3446.       3445.       3445.       3445.       3446.    
        3446.       3446.       3446.       3444.       3444.       3444.       3443.       3443.       3443.       3441.    
        3441.       3441.       3439.       3439.       3439.       3436.       3436.       3436.       3434.       3434.    
        3434.       3435.       3435.       3435.       3434.       3434.       3434.       3435.       3435.       3435.    
        3436.       3436.       3436.       3438.       3438.       3440.       3440.       3440.       3440.       3440.    
        3439.       3439.       3439.       3439.       3440.       3442.       3442.       3442.       3443.       3443.    
        3444.       3444.       3444.       3445.       3446.       3448.    
  13    3412.       3410.       3409.       3410.       3410.       3410.       3409.       3409.       3409.       3409.    
        3407.       3407.       3407.       3409.       3412.       3412.       3414.       3414.       3414.       3417.    
        3417.       3417.       3417.       3420.       3420.       3420.       3422.       3422.       3422.       3424.    
        3424.       3424.       3424.       3424.       3424.       3422.       3422.       3422.       3421.       3421.    
        3421.       3422.       3422.       3422.       3421.       3421.       3421.       3422.       3422.       3422.    
        3422.       3422.       3422.       3424.       3424.       3424.       3424.       3424.       3424.       3426.    
        3426.       3426.       3429.       3429.       3429.       3433.       3433.       3433.       3436.       3436.    
        3436.       3437.       3437.       3437.       3437.       3439.       3439.       3439.       3439.       3439.    
        3439.       3440.       3440.       3440.       3440.       3440.       3440.       3442.       3442.       3442.    
        3442.       3442.       3442.       3442.       3442.       3442.       3442.       3442.       3442.       3443.    
        3443.       3443.       3444.       3444.       3444.       3446.       3446.       3446.       3442.       3442.    
        3442.       3442.       3442.       3442.       3443.       3443.       3443.       3443.       3443.       3443.    
        3445.       3445.       3445.       3445.       3445.       3445.       3444.       3444.       3444.       3444.    
        3444.       3444.       3444.       3440.       3440.       3440.       3437.       3437.       3437.       3435.    
        3435.       3435.       3434.       3434.       3434.       3433.       3433.       3433.       3432.       3432.    
        3432.       3432.       3432.       3432.       3431.       3431.       3431.       3431.       3431.       3431.    
        3431.       3431.       3431.       3433.       3433.       3434.       3434.       3436.       3437.       3436.    
        3437.       3437.       3438.       3440.       3440.       3442.       3442.       3443.       3442.       3443.    
        3445.       3445.       3445.       3445.       3446.       3448.    
  14    3415.       3412.       3410.       3409.       3409.       3409.       3412.       3410.       3409.       3409.    
        3407.       3409.       3410.       3410.       3409.       3409.       3412.       3412.       3412.       3416.    
        3416.       3416.       3416.       3419.       3419.       3419.       3422.       3422.       3422.       3421.    
        3421.       3421.       3422.       3422.       3422.       3420.       3420.       3420.       3419.       3419.    
        3419.       3419.       3419.       3419.       3420.       3420.       3420.       3421.       3421.       3421.    
        3422.       3422.       3422.       3421.       3421.       3421.       3420.       3420.       3420.       3421.    
        3421.       3421.       3424.       3424.       3424.       3427.       3427.       3427.       3429.       3429.    
        3429.       3430.       3430.       3430.       3430.       3431.       3431.       3431.       3433.       3433.    
        3433.       3434.       3434.       3434.       3436.       3436.       3436.       3437.       3437.       3437.    
        3438.       3438.       3438.       3438.       3438.       3438.       3438.       3438.       3438.       3439.    
        3439.       3439.       3439.       3439.       3439.       3440.       3440.       3440.       3442.       3442.    
        3442.       3437.       3437.       3437.       3437.       3437.       3437.       3437.       3437.       3437.    
        3436.       3436.       3436.       3436.       3436.       3436.       3436.       3436.       3436.       3436.    
        3436.       3436.       3436.       3435.       3435.       3435.       3433.       3433.       3433.       3431.    
        3431.       3431.       3431.       3431.       3431.       3431.       3431.       3431.       3433.       3433.    
        3433.       3434.       3434.       3434.       3434.       3434.       3434.       3434.       3434.       3434.    
        3434.       3434.       3434.       3435.       3435.       3436.       3436.       3437.       3437.       3436.    
        3439.       3439.       3441.       3442.       3443.       3444.       3444.       3444.       3443.       3443.    
        3444.       3444.       3444.       3444.       3446.       3448.    
  15    3417.       3414.       3411.       3410.       3410.       3410.       3413.       3413.       3410.       3410.    
        3409.       3410.       3411.       3412.       3411.       3411.       3411.       3411.       3411.       3413.    
        3413.       3413.       3413.       3416.       3416.       3416.       3419.       3419.       3419.       3422.    
        3422.       3422.       3423.       3423.       3423.       3422.       3422.       3422.       3424.       3424.    
        3424.       3424.       3424.       3424.       3424.       3424.       3424.       3425.       3425.       3425.    
        3425.       3425.       3425.       3425.       3425.       3425.       3424.       3424.       3424.       3424.    
        3424.       3424.       3423.       3423.       3423.       3423.       3423.       3423.       3424.       3424.    
        3424.       3425.       3425.       3425.       3425.       3426.       3426.       3426.       3428.       3428.    
        3428.       3429.       3429.       3429.       3430.       3430.       3430.       3431.       3431.       3431.    
        3432.       3432.       3432.       3433.       3433.       3433.       3433.       3433.       3433.       3433.    
        3433.       3433.       3434.       3434.       3434.       3436.       3436.       3436.       3437.       3437.    
        3437.       3433.       3433.       3433.       3434.       3434.       3434.       3436.       3436.       3436.    
        3436.       3436.       3436.       3435.       3435.       3435.       3433.       3433.       3433.       3430.    
        3430.       3430.       3430.       3430.       3430.       3430.       3431.       3431.       3431.       3431.    
        3431.       3431.       3431.       3431.       3431.       3431.       3431.       3431.       3433.       3433.    
        3433.       3435.       3435.       3435.       3436.       3436.       3436.       3436.       3436.       3436.    
        3438.       3438.       3438.       3440.       3440.       3441.       3441.       3440.       3438.       3438.    
        3440.       3440.       3442.       3443.       3443.       3444.       3444.       3445.       3445.       3445.    
        3445.       3445.       3445.       3446.       3447.       3448.    
  16    3419.       3417.       3415.       3411.       3411.       3407.       3408.       3412.       3413.       3413.    
        3409.       3409.       3410.       3412.       3413.       3413.       3413.       3413.       3413.       3413.    
        3413.       3413.       3413.       3413.       3413.       3413.       3413.       3413.       3413.       3416.    
        3416.       3416.       3418.       3418.       3418.       3420.       3420.       3420.       3421.       3421.    
        3421.       3421.       3421.       3421.       3424.       3424.       3424.       3425.       3425.       3425.    
        3425.       3425.       3425.       3425.       3425.       3425.       3425.       3425.       3425.       3427.    
        3427.       3427.       3427.       3427.       3427.       3428.       3428.       3428.       3427.       3427.    
        3427.       3425.       3425.       3425.       3425.       3425.       3425.       3425.       3427.       3427.    
        3427.       3427.       3427.       3427.       3427.       3427.       3427.       3427.       3427.       3427.    
        3428.       3428.       3428.       3428.       3428.       3428.       3430.       3430.       3430.       3430.    
        3430.       3430.       3431.       3431.       3431.       3432.       3432.       3432.       3433.       3433.    
        3433.       3433.       3433.       3433.       3430.       3430.       3430.       3431.       3431.       3431.    
        3432.       3432.       3432.       3431.       3431.       3431.       3430.       3430.       3430.       3428.    
        3428.       3428.       3428.       3428.       3428.       3428.       3429.       3429.       3429.       3430.    
        3430.       3430.       3431.       3431.       3431.       3431.       3431.       3431.       3433.       3433.    
        3433.       3434.       3434.       3434.       3436.       3436.       3436.       3436.       3436.       3436.    
        3437.       3437.       3437.       3439.       3439.       3439.       3439.       3439.       3439.       3439.    
        3440.       3440.       3442.       3442.       3442.       3445.       3445.       3446.       3446.       3446.    
        3444.       3444.       3444.       3445.       3448.       3448.    
  17    3419.       3417.       3415.       3411.       3411.       3407.       3408.       3412.       3413.       3413.    
        3409.       3409.       3410.       3412.       3413.       3413.       3413.       3413.       3413.       3413.    
        3413.       3413.       3413.       3413.       3413.       3413.       3413.       3413.       3413.       3416.    
        3416.       3416.       3418.       3418.       3418.       3420.       3420.       3420.       3421.       3421.    
        3421.       3421.       3421.       3421.       3424.       3424.       3424.       3425.       3425.       3425.    
        3425.       3425.       3425.       3425.       3425.       3425.       3425.       3425.       3425.       3427.    
        3427.       3427.       3427.       3427.       3427.       3428.       3428.       3428.       3427.       3427.    
        3427.       3425.       3425.       3425.       3425.       3425.       3425.       3425.       3427.       3427.    
        3427.       3427.       3427.       3427.       3427.       3427.       3427.       3427.       3427.       3427.    
        3428.       3428.       3428.       3428.       3428.       3428.       3430.       3430.       3430.       3430.    
        3430.       3430.       3431.       3431.       3431.       3432.       3432.       3432.       3433.       3433.    
        3433.       3433.       3433.       3433.       3430.       3430.       3430.       3431.       3431.       3431.    
        3432.       3432.       3432.       3431.       3431.       3431.       3430.       3430.       3430.       3428.    
        3428.       3428.       3428.       3428.       3428.       3428.       3429.       3429.       3429.       3430.    
        3430.       3430.       3431.       3431.       3431.       3431.       3431.       3431.       3433.       3433.    
        3433.       3434.       3434.       3434.       3436.       3436.       3436.       3436.       3436.       3436.    
        3437.       3437.       3437.       3439.       3439.       3439.       3439.       3439.       3439.       3439.    
        3440.       3440.       3442.       3442.       3442.       3445.       3445.       3446.       3446.       3446.    
        3444.       3444.       3444.       3445.       3448.       3448.    
  18    3419.       3418.       3418.       3412.       3412.       3412.       3411.       3412.       3413.       3413.    
        3410.       3410.       3412.       3414.       3415.       3415.       3416.       3416.       3416.       3416.    
        3416.       3416.       3416.       3415.       3415.       3415.       3413.       3413.       3413.       3412.    
        3412.       3412.       3413.       3413.       3413.       3416.       3416.       3416.       3418.       3418.    
        3418.       3418.       3418.       3418.       3419.       3419.       3419.       3419.       3419.       3419.    
        3421.       3421.       3421.       3424.       3424.       3424.       3427.       3427.       3427.       3425.    
        3425.       3425.       3425.       3425.       3425.       3427.       3427.       3427.       3427.       3427.    
        3427.       3427.       3427.       3427.       3427.       3426.       3426.       3426.       3428.       3428.    
        3428.       3429.       3429.       3429.       3428.       3428.       3428.       3427.       3427.       3427.    
        3426.       3426.       3426.       3427.       3427.       3427.       3428.       3428.       3428.       3428.    
        3428.       3428.       3428.       3428.       3428.       3430.       3430.       3430.       3431.       3431.    
        3431.       3431.       3431.       3431.       3430.       3430.       3430.       3425.       3425.       3425.    
        3426.       3426.       3426.       3428.       3428.       3428.       3429.       3429.       3429.       3429.    
        3429.       3429.       3429.       3430.       3430.       3430.       3431.       3431.       3431.       3434.    
        3434.       3434.       3436.       3436.       3436.       3436.       3436.       3436.       3435.       3435.    
        3435.       3436.       3436.       3436.       3437.       3437.       3437.       3438.       3438.       3438.    
        3440.       3440.       3440.       3442.       3442.       3443.       3443.       3442.       3441.       3440.    
        3441.       3441.       3442.       3442.       3441.       3442.       3442.       3445.       3446.       3445.    
        3444.       3443.       3443.       3444.       3446.       3448.    
  19    3422.       3421.       3419.       3414.       3414.       3416.       3418.       3415.       3415.       3415.    
        3410.       3411.       3412.       3414.       3416.       3416.       3417.       3417.       3417.       3418.    
        3418.       3418.       3418.       3417.       3417.       3417.       3416.       3416.       3416.       3415.    
        3415.       3415.       3414.       3414.       3414.       3415.       3415.       3415.       3416.       3416.    
        3416.       3417.       3417.       3417.       3416.       3416.       3416.       3415.       3415.       3415.    
        3416.       3416.       3416.       3420.       3420.       3420.       3422.       3422.       3422.       3422.    
        3422.       3422.       3423.       3423.       3423.       3424.       3424.       3424.       3425.       3425.    
        3425.       3425.       3425.       3425.       3425.       3425.       3425.       3425.       3425.       3425.    
        3425.       3428.       3428.       3428.       3427.       3427.       3427.       3426.       3426.       3426.    
        3426.       3426.       3426.       3427.       3427.       3427.       3427.       3427.       3427.       3428.    
        3428.       3428.       3429.       3429.       3429.       3430.       3430.       3430.       3431.       3431.    
        3431.       3429.       3429.       3429.       3426.       3426.       3426.       3425.       3425.       3425.    
        3423.       3423.       3423.       3427.       3427.       3427.       3428.       3428.       3428.       3430.    
        3430.       3430.       3430.       3431.       3431.       3431.       3432.       3432.       3432.       3433.    
        3433.       3433.       3435.       3435.       3435.       3436.       3436.       3436.       3437.       3437.    
        3437.       3437.       3437.       3437.       3437.       3437.       3437.       3438.       3438.       3438.    
        3440.       3440.       3440.       3442.       3442.       3444.       3444.       3444.       3443.       3442.    
        3441.       3441.       3441.       3441.       3441.       3442.       3442.       3443.       3445.       3446.    
        3445.       3445.       3445.       3448.       3450.       3451.    
  20    3422.       3421.       3418.       3415.       3415.       3417.       3419.       3416.       3416.       3416.    
        3413.       3412.       3410.       3412.       3414.       3414.       3416.       3416.       3416.       3415.    
        3415.       3415.       3415.       3415.       3415.       3415.       3416.       3416.       3416.       3416.    
        3416.       3416.       3415.       3415.       3415.       3416.       3416.       3416.       3416.       3416.    
        3416.       3416.       3416.       3416.       3416.       3416.       3416.       3416.       3416.       3416.    
        3415.       3415.       3415.       3417.       3417.       3417.       3418.       3418.       3418.       3418.    
        3418.       3418.       3419.       3419.       3419.       3420.       3420.       3420.       3422.       3422.    
        3422.       3422.       3422.       3422.       3422.       3422.       3422.       3422.       3424.       3424.    
        3424.       3426.       3426.       3426.       3426.       3426.       3426.       3425.       3425.       3425.    
        3425.       3425.       3425.       3426.       3426.       3426.       3426.       3426.       3426.       3427.    
        3427.       3427.       3429.       3429.       3429.       3430.       3430.       3430.       3431.       3431.    
        3431.       3428.       3428.       3428.       3425.       3425.       3425.       3422.       3422.       3422.    
        3423.       3423.       3423.       3428.       3428.       3428.       3430.       3430.       3430.       3431.    
        3431.       3431.       3431.       3433.       3433.       3433.       3433.       3433.       3433.       3433.    
        3433.       3433.       3434.       3434.       3434.       3436.       3436.       3436.       3438.       3438.    
        3438.       3438.       3438.       3438.       3437.       3437.       3437.       3439.       3439.       3439.    
        3440.       3440.       3440.       3442.       3442.       3444.       3444.       3445.       3442.       3442.    
        3441.       3441.       3442.       3440.       3442.       3443.       3443.       3445.       3447.       3447.    
        3448.       3449.       3449.       3451.       3451.       3451.    
  21    3423.       3423.       3420.       3415.       3415.       3416.       3416.       3415.       3415.       3415.    
        3415.       3412.       3409.       3410.       3411.       3411.       3412.       3412.       3412.       3413.    
        3413.       3413.       3413.       3413.       3413.       3413.       3414.       3414.       3414.       3416.    
        3416.       3416.       3416.       3416.       3416.       3415.       3415.       3415.       3415.       3415.    
        3415.       3415.       3415.       3415.       3416.       3416.       3416.       3418.       3418.       3418.    
        3417.       3417.       3417.       3417.       3417.       3417.       3417.       3417.       3417.       3417.    
        3417.       3417.       3416.       3416.       3416.       3417.       3417.       3417.       3418.       3418.    
        3418.       3418.       3418.       3418.       3418.       3419.       3419.       3419.       3421.       3421.    
        3421.       3424.       3424.       3424.       3425.       3425.       3425.       3425.       3425.       3425.    
        3426.       3426.       3426.       3426.       3426.       3426.       3425.       3425.       3425.       3426.    
        3426.       3426.       3428.       3428.       3428.       3429.       3429.       3429.       3429.       3429.    
        3429.       3427.       3427.       3427.       3425.       3425.       3425.       3424.       3424.       3424.    
        3424.       3424.       3424.       3428.       3428.       3428.       3431.       3431.       3431.       3432.    
        3432.       3432.       3432.       3434.       3434.       3434.       3435.       3435.       3435.       3436.    
        3436.       3436.       3436.       3436.       3436.       3437.       3437.       3437.       3438.       3438.    
        3438.       3439.       3439.       3439.       3439.       3439.       3439.       3440.       3440.       3440.    
        3441.       3441.       3441.       3440.       3440.       3440.       3440.       3442.       3442.       3442.    
        3442.       3442.       3441.       3440.       3442.       3445.       3445.       3446.       3447.       3447.    
        3448.       3449.       3449.       3449.       3449.       3450.    
  22    3423.       3423.       3420.       3415.       3415.       3416.       3416.       3415.       3415.       3415.    
        3415.       3412.       3409.       3410.       3411.       3411.       3412.       3412.       3412.       3413.    
        3413.       3413.       3413.       3413.       3413.       3413.       3414.       3414.       3414.       3416.    
        3416.       3416.       3416.       3416.       3416.       3415.       3415.       3415.       3415.       3415.    
        3415.       3415.       3415.       3415.       3416.       3416.       3416.       3418.       3418.       3418.    
        3417.       3417.       3417.       3417.       3417.       3417.       3417.       3417.       3417.       3417.    
        3417.       3417.       3416.       3416.       3416.       3417.       3417.       3417.       3418.       3418.    
        3418.       3418.       3418.       3418.       3418.       3419.       3419.       3419.       3421.       3421.    
        3421.       3424.       3424.       3424.       3425.       3425.       3425.       3425.       3425.       3425.    
        3426.       3426.       3426.       3426.       3426.       3426.       3425.       3425.       3424.       3426.    
        3426.       3426.       3428.       3428.       3428.       3429.       3429.       3429.       3429.       3429.    
        3429.       3427.       3427.       3427.       3425.       3425.       3425.       3424.       3424.       3424.    
        3424.       3424.       3424.       3428.       3428.       3428.       3431.       3431.       3431.       3432.    
        3432.       3432.       3432.       3434.       3434.       3434.       3435.       3435.       3435.       3436.    
        3436.       3436.       3436.       3436.       3436.       3437.       3437.       3437.       3438.       3438.    
        3438.       3439.       3439.       3439.       3439.       3439.       3439.       3439.       3440.       3440.    
        3441.       3441.       3441.       3440.       3440.       3440.       3440.       3442.       3442.       3442.    
        3442.       3442.       3441.       3440.       3442.       3445.       3445.       3446.       3447.       3447.    
        3448.       3449.       3449.       3449.       3449.       3450.    
  23    3424.       3421.       3416.       3414.       3414.       3413.       3415.       3416.       3415.       3415.    
        3414.       3412.       3411.       3412.       3411.       3411.       3412.       3412.       3412.       3413.    
        3413.       3413.       3413.       3413.       3413.       3413.       3415.       3415.       3415.       3415.    
        3415.       3415.       3416.       3416.       3416.       3416.       3416.       3416.       3416.       3416.    
        3416.       3416.       3416.       3416.       3417.       3417.       3417.       3418.       3418.       3418.    
        3417.       3417.       3417.       3418.       3418.       3418.       3418.       3418.       3418.       3419.    
        3419.       3419.       3418.       3418.       3418.       3418.       3418.       3418.       3418.       3418.    
        3418.       3417.       3417.       3417.       3417.       3419.       3419.       3419.       3419.       3419.    
        3419.       3421.       3421.       3421.       3422.       3422.       3422.       3422.       3422.       3422.    
        3423.       3423.       3423.       3424.       3424.       3424.       3424.       3424.       3424.       3424.    
        3424.       3424.       3424.       3424.       3424.       3424.       3424.       3424.       3425.       3425.    
        3425.       3425.       3425.       3425.       3425.       3425.       3425.       3427.       3427.       3427.    
        3428.       3428.       3428.       3430.       3430.       3430.       3431.       3431.       3431.       3432.    
        3432.       3432.       3432.       3433.       3433.       3433.       3434.       3434.       3434.       3434.    
        3434.       3434.       3434.       3434.       3434.       3434.       3434.       3434.       3436.       3436.    
        3436.       3436.       3436.       3436.       3437.       3437.       3437.       3439.       3439.       3439.    
        3440.       3440.       3440.       3440.       3440.       3440.       3440.       3441.       3441.       3442.    
        3443.       3443.       3443.       3442.       3442.       3445.       3445.       3446.       3447.       3447.    
        3448.       3448.       3448.       3448.       3448.       3449.    
  24    3422.       3421.       3416.       3414.       3414.       3413.       3413.       3415.       3414.       3414.    
        3413.       3412.       3414.       3413.       3414.       3414.       3415.       3415.       3415.       3415.    
        3415.       3415.       3415.       3416.       3416.       3416.       3416.       3416.       3416.       3418.    
        3418.       3418.       3419.       3419.       3419.       3419.       3419.       3419.       3419.       3419.    
        3419.       3418.       3418.       3418.       3418.       3418.       3418.       3418.       3418.       3418.    
        3418.       3418.       3418.       3419.       3419.       3419.       3419.       3419.       3419.       3421.    
        3421.       3421.       3421.       3421.       3421.       3421.       3421.       3421.       3421.       3421.    
        3421.       3421.       3421.       3421.       3421.       3421.       3421.       3421.       3422.       3422.    
        3422.       3422.       3422.       3422.       3421.       3421.       3421.       3422.       3422.       3422.    
        3422.       3422.       3422.       3423.       3423.       3423.       3424.       3424.       3424.       3425.    
        3425.       3425.       3425.       3425.       3425.       3425.       3425.       3425.       3426.       3426.    
        3426.       3426.       3426.       3426.       3428.       3428.       3428.       3429.       3429.       3429.    
        3430.       3430.       3430.       3430.       3430.       3430.       3431.       3431.       3431.       3431.    
        3431.       3431.       3431.       3433.       3433.       3433.       3434.       3434.       3434.       3435.    
        3435.       3435.       3436.       3436.       3436.       3437.       3437.       3437.       3439.       3439.    
        3439.       3439.       3439.       3439.       3440.       3440.       3440.       3440.       3440.       3440.    
        3440.       3440.       3440.       3439.       3439.       3440.       3440.       3441.       3443.       3443.    
        3445.       3445.       3446.       3446.       3445.       3445.       3445.       3445.       3446.       3448.    
        3446.       3446.       3446.       3448.       3448.       3449.    
  25    3420.       3419.       3415.       3412.       3412.       3413.       3412.       3416.       3415.       3415.    
        3413.       3413.       3414.       3415.       3416.       3416.       3417.       3417.       3417.       3416.    
        3416.       3416.       3416.       3417.       3417.       3417.       3418.       3418.       3418.       3419.    
        3419.       3419.       3419.       3419.       3419.       3419.       3419.       3419.       3419.       3419.    
        3419.       3419.       3419.       3419.       3418.       3418.       3418.       3418.       3418.       3418.    
        3419.       3419.       3419.       3421.       3421.       3421.       3422.       3422.       3422.       3423.    
        3423.       3423.       3424.       3424.       3424.       3424.       3424.       3424.       3424.       3424.    
        3424.       3425.       3425.       3425.       3425.       3424.       3424.       3424.       3424.       3424.    
        3424.       3422.       3422.       3422.       3423.       3423.       3423.       3424.       3424.       3424.    
        3424.       3424.       3424.       3425.       3425.       3425.       3425.       3425.       3425.       3427.    
        3427.       3427.       3428.       3428.       3428.       3429.       3429.       3429.       3430.       3430.    
        3430.       3430.       3430.       3430.       3430.       3430.       3430.       3430.       3430.       3430.    
        3430.       3430.       3430.       3430.       3430.       3430.       3431.       3431.       3431.       3431.    
        3431.       3431.       3431.       3433.       3433.       3433.       3435.       3435.       3435.       3436.    
        3436.       3436.       3437.       3437.       3437.       3439.       3439.       3439.       3441.       3441.    
        3441.       3443.       3443.       3443.       3445.       3445.       3445.       3445.       3445.       3445.    
        3442.       3442.       3442.       3440.       3440.       3441.       3441.       3442.       3443.       3443.    
        3444.       3444.       3446.       3448.       3447.       3448.       3448.       3448.       3448.       3449.    
        3450.       3450.       3450.       3449.       3449.       3451.    
  26    3419.       3416.       3413.       3413.       3413.       3413.       3414.       3416.       3415.       3415.    
        3415.       3414.       3413.       3414.       3416.       3416.       3417.       3417.       3417.       3416.    
        3416.       3416.       3416.       3416.       3416.       3416.       3418.       3418.       3418.       3419.    
        3419.       3419.       3420.       3420.       3420.       3419.       3419.       3419.       3419.       3419.    
        3419.       3418.       3418.       3418.       3418.       3418.       3418.       3419.       3419.       3419.    
        3420.       3420.       3420.       3421.       3421.       3421.       3420.       3420.       3420.       3421.    
        3421.       3421.       3422.       3422.       3422.       3422.       3422.       3422.       3423.       3423.    
        3423.       3424.       3424.       3424.       3424.       3425.       3425.       3425.       3424.       3424.    
        3424.       3424.       3424.       3424.       3425.       3425.       3425.       3425.       3425.       3425.    
        3424.       3424.       3424.       3424.       3424.       3424.       3424.       3424.       3424.       3425.    
        3425.       3425.       3427.       3427.       3427.       3428.       3428.       3428.       3429.       3429.    
        3429.       3430.       3430.       3430.       3431.       3431.       3431.       3430.       3430.       3430.    
        3430.       3430.       3430.       3430.       3430.       3430.       3431.       3431.       3431.       3433.    
        3433.       3433.       3433.       3433.       3433.       3433.       3436.       3436.       3436.       3436.    
        3436.       3436.       3437.       3437.       3437.       3439.       3439.       3439.       3440.       3440.    
        3440.       3442.       3442.       3442.       3445.       3445.       3445.       3446.       3446.       3446.    
        3446.       3446.       3446.       3445.       3445.       3444.       3444.       3445.       3445.       3443.    
        3443.       3443.       3446.       3448.       3448.       3447.       3447.       3448.       3448.       3448.    
        3449.       3450.       3450.       3451.       3451.       3451.    
  27    3419.       3416.       3413.       3413.       3413.       3413.       3414.       3416.       3415.       3415.    
        3415.       3414.       3413.       3414.       3416.       3416.       3417.       3417.       3417.       3416.    
        3416.       3416.       3416.       3416.       3416.       3416.       3418.       3418.       3418.       3419.    
        3419.       3419.       3420.       3420.       3420.       3419.       3419.       3419.       3419.       3419.    
        3419.       3418.       3418.       3418.       3418.       3418.       3418.       3419.       3419.       3419.    
        3420.       3420.       3420.       3421.       3421.       3421.       3420.       3420.       3420.       3421.    
        3421.       3421.       3422.       3422.       3422.       3422.       3422.       3422.       3423.       3423.    
        3423.       3424.       3424.       3424.       3424.       3425.       3425.       3425.       3424.       3424.    
        3424.       3424.       3424.       3424.       3425.       3425.       3425.       3425.       3425.       3425.    
        3424.       3424.       3424.       3424.       3424.       3424.       3424.       3424.       3424.       3425.    
        3425.       3425.       3427.       3427.       3427.       3428.       3428.       3428.       3429.       3429.    
        3429.       3430.       3430.       3430.       3431.       3431.       3431.       3430.       3430.       3430.    
        3430.       3430.       3430.       3430.       3430.       3430.       3431.       3431.       3431.       3433.    
        3433.       3433.       3433.       3433.       3433.       3433.       3436.       3436.       3436.       3436.    
        3436.       3436.       3437.       3437.       3437.       3439.       3439.       3439.       3440.       3440.    
        3440.       3442.       3442.       3442.       3445.       3445.       3445.       3446.       3446.       3446.    
        3446.       3446.       3446.       3445.       3445.       3444.       3444.       3445.       3445.       3443.    
        3443.       3443.       3446.       3448.       3448.       3447.       3447.       3448.       3448.       3448.    
        3449.       3450.       3450.       3451.       3451.       3451.    
  28    3417.       3415.       3415.       3413.       3413.       3415.       3415.       3414.       3414.       3414.    
        3413.       3415.       3416.       3417.       3418.       3418.       3418.       3418.       3418.       3418.    
        3418.       3418.       3418.       3417.       3417.       3417.       3419.       3419.       3419.       3420.    
        3420.       3420.       3420.       3420.       3420.       3419.       3419.       3419.       3421.       3421.    
        3421.       3420.       3420.       3420.       3419.       3419.       3419.       3420.       3420.       3420.    
        3421.       3421.       3421.       3421.       3421.       3421.       3421.       3421.       3421.       3421.    
        3421.       3421.       3422.       3422.       3422.       3423.       3423.       3423.       3423.       3423.    
        3423.       3423.       3423.       3423.       3423.       3423.       3423.       3423.       3424.       3424.    
        3424.       3424.       3424.       3424.       3425.       3425.       3425.       3426.       3426.       3426.    
        3425.       3425.       3425.       3425.       3425.       3425.       3426.       3426.       3426.       3426.    
        3426.       3426.       3427.       3427.       3427.       3428.       3428.       3428.       3428.       3428.    
        3428.       3429.       3429.       3429.       3431.       3431.       3431.       3430.       3430.       3430.    
        3430.       3430.       3430.       3430.       3430.       3430.       3432.       3432.       3432.       3434.    
        3434.       3434.       3434.       3435.       3435.       3435.       3436.       3436.       3436.       3438.    
        3438.       3438.       3439.       3439.       3439.       3439.       3439.       3439.       3439.       3439.    
        3439.       3441.       3441.       3441.       3442.       3442.       3442.       3445.       3445.       3445.    
        3446.       3446.       3446.       3445.       3445.       3443.       3443.       3445.       3446.       3446.    
        3446.       3446.       3447.       3448.       3447.       3446.       3446.       3447.       3449.       3448.    
        3448.       3447.       3447.       3448.       3449.       3449.    
  29    3417.       3415.       3415.       3413.       3413.       3415.       3415.       3414.       3414.       3414.    
        3413.       3415.       3416.       3417.       3418.       3418.       3418.       3418.       3418.       3418.    
        3418.       3418.       3418.       3417.       3417.       3417.       3419.       3419.       3419.       3420.    
        3420.       3420.       3420.       3420.       3420.       3419.       3419.       3419.       3421.       3421.    
        3421.       3420.       3420.       3420.       3419.       3419.       3419.       3420.       3420.       3420.    
        3421.       3421.       3421.       3421.       3421.       3421.       3421.       3421.       3421.       3421.    
        3421.       3421.       3422.       3422.       3422.       3423.       3423.       3423.       3423.       3423.    
        3423.       3423.       3423.       3423.       3423.       3423.       3423.       3423.       3424.       3424.    
        3424.       3424.       3424.       3424.       3425.       3425.       3425.       3426.       3426.       3426.    
        3425.       3425.       3425.       3425.       3425.       3425.       3426.       3426.       3426.       3426.    
        3426.       3426.       3427.       3427.       3427.       3428.       3428.       3428.       3428.       3428.    
        3428.       3429.       3429.       3429.       3431.       3431.       3431.       3430.       3430.       3430.    
        3430.       3430.       3430.       3430.       3430.       3430.       3432.       3432.       3432.       3434.    
        3434.       3434.       3434.       3435.       3435.       3435.       3436.       3436.       3436.       3438.    
        3438.       3438.       3439.       3439.       3439.       3439.       3439.       3439.       3439.       3439.    
        3439.       3441.       3441.       3441.       3442.       3442.       3442.       3445.       3445.       3445.    
        3446.       3446.       3446.       3445.       3445.       3443.       3443.       3445.       3446.       3446.    
        3446.       3446.       3447.       3448.       3447.       3446.       3446.       3447.       3449.       3448.    
        3448.       3447.       3447.       3448.       3449.       3449.    
  30    3417.       3415.       3415.       3413.       3413.       3415.       3415.       3414.       3414.       3414.    
        3413.       3415.       3416.       3417.       3418.       3418.       3418.       3418.       3418.       3418.    
        3418.       3418.       3418.       3417.       3417.       3417.       3419.       3419.       3419.       3420.    
        3420.       3420.       3420.       3420.       3420.       3419.       3419.       3419.       3421.       3421.    
        3421.       3420.       3420.       3420.       3419.       3419.       3419.       3420.       3420.       3420.    
        3421.       3421.       3421.       3421.       3421.       3421.       3421.       3421.       3421.       3421.    
        3421.       3421.       3422.       3422.       3422.       3423.       3423.       3423.       3423.       3423.    
        3423.       3423.       3423.       3423.       3423.       3423.       3423.       3423.       3424.       3424.    
        3424.       3424.       3424.       3424.       3425.       3425.       3425.       3426.       3426.       3426.    
        3425.       3425.       3425.       3425.       3425.       3425.       3426.       3426.       3426.       3426.    
        3426.       3426.       3427.       3427.       3427.       3428.       3428.       3428.       3428.       3428.    
        3428.       3429.       3429.       3429.       3431.       3431.       3431.       3430.       3430.       3430.    
        3430.       3430.       3430.       3430.       3430.       3430.       3432.       3432.       3432.       3434.    
        3434.       3434.       3434.       3435.       3435.       3435.       3436.       3436.       3436.       3438.    
        3438.       3438.       3439.       3439.       3439.       3439.       3439.       3439.       3439.       3439.    
        3439.       3441.       3441.       3441.       3442.       3442.       3442.       3445.       3445.       3445.    
        3446.       3446.       3446.       3445.       3445.       3443.       3443.       3445.       3446.       3446.    
        3446.       3446.       3447.       3448.       3447.       3446.       3446.       3447.       3449.       3448.    
        3448.       3447.       3447.       3448.       3449.       3449.    
  31    3418.       3417.       3416.       3415.       3415.       3415.       3415.       3415.       3413.       3413.    
        3412.       3414.       3418.       3421.       3420.       3420.       3418.       3418.       3418.       3418.    
        3418.       3418.       3418.       3419.       3419.       3419.       3422.       3422.       3422.       3422.    
        3422.       3422.       3420.       3420.       3420.       3419.       3419.       3419.       3420.       3420.    
        3420.       3419.       3419.       3419.       3419.       3419.       3419.       3421.       3421.       3421.    
        3422.       3422.       3422.       3422.       3422.       3422.       3421.       3421.       3421.       3421.    
        3421.       3421.       3422.       3422.       3422.       3423.       3423.       3423.       3424.       3424.    
        3424.       3424.       3424.       3424.       3424.       3424.       3424.       3424.       3424.       3424.    
        3424.       3425.       3425.       3425.       3426.       3426.       3426.       3427.       3427.       3427.    
        3427.       3427.       3427.       3427.       3427.       3427.       3427.       3427.       3427.       3428.    
        3428.       3428.       3427.       3427.       3427.       3427.       3427.       3427.       3428.       3428.    
        3428.       3430.       3430.       3430.       3430.       3430.       3430.       3430.       3430.       3430.    
        3430.       3430.       3430.       3432.       3432.       3432.       3433.       3433.       3433.       3433.    
        3433.       3433.       3433.       3433.       3433.       3433.       3436.       3436.       3436.       3438.    
        3438.       3438.       3438.       3438.       3438.       3437.       3437.       3437.       3438.       3438.    
        3438.       3440.       3440.       3440.       3443.       3443.       3443.       3445.       3445.       3445.    
        3445.       3445.       3445.       3443.       3443.       3443.       3443.       3444.       3446.       3447.    
        3448.       3448.       3446.       3446.       3446.       3446.       3446.       3447.       3449.       3449.    
        3448.       3449.       3449.       3450.       3450.       3449.    
  32    3418.       3417.       3416.       3415.       3415.       3415.       3415.       3415.       3413.       3413.    
        3412.       3414.       3418.       3421.       3420.       3420.       3418.       3418.       3418.       3418.    
        3418.       3418.       3418.       3419.       3419.       3419.       3422.       3422.       3422.       3422.    
        3422.       3422.       3420.       3420.       3420.       3419.       3419.       3419.       3420.       3420.    
        3420.       3419.       3419.       3419.       3419.       3419.       3419.       3421.       3421.       3421.    
        3422.       3422.       3422.       3422.       3422.       3422.       3421.       3421.       3421.       3421.    
        3421.       3421.       3422.       3422.       3422.       3423.       3423.       3423.       3424.       3424.    
        3424.       3424.       3424.       3424.       3424.       3424.       3424.       3424.       3424.       3424.    
        3424.       3425.       3425.       3425.       3426.       3426.       3426.       3427.       3427.       3427.    
        3427.       3427.       3427.       3427.       3427.       3427.       3427.       3427.       3427.       3428.    
        3428.       3428.       3427.       3427.       3427.       3427.       3427.       3427.       3428.       3428.    
        3428.       3430.       3430.       3430.       3430.       3430.       3430.       3430.       3430.       3430.    
        3430.       3430.       3430.       3432.       3432.       3432.       3433.       3433.       3433.       3433.    
        3433.       3433.       3433.       3433.       3433.       3433.       3436.       3436.       3436.       3438.    
        3438.       3438.       3438.       3438.       3438.       3437.       3437.       3437.       3438.       3438.    
        3438.       3440.       3440.       3440.       3443.       3443.       3443.       3445.       3445.       3445.    
        3445.       3445.       3445.       3443.       3443.       3443.       3443.       3444.       3446.       3447.    
        3448.       3448.       3446.       3446.       3446.       3446.       3446.       3447.       3449.       3449.    
        3448.       3449.       3449.       3450.       3450.       3449.    
  33    3418.       3417.       3416.       3415.       3415.       3415.       3415.       3415.       3413.       3413.    
        3412.       3414.       3418.       3421.       3420.       3420.       3418.       3418.       3418.       3418.    
        3418.       3418.       3418.       3419.       3419.       3419.       3422.       3422.       3422.       3422.    
        3422.       3422.       3420.       3420.       3420.       3419.       3419.       3419.       3420.       3420.    
        3420.       3419.       3419.       3419.       3419.       3419.       3419.       3421.       3421.       3421.    
        3422.       3422.       3422.       3422.       3422.       3422.       3421.       3421.       3421.       3421.    
        3421.       3421.       3422.       3422.       3422.       3423.       3423.       3423.       3424.       3424.    
        3424.       3424.       3424.       3424.       3424.       3424.       3424.       3424.       3424.       3424.    
        3424.       3425.       3425.       3425.       3426.       3426.       3426.       3427.       3427.       3427.    
        3427.       3427.       3427.       3427.       3427.       3427.       3427.       3427.       3427.       3428.    
        3428.       3428.       3427.       3427.       3427.       3427.       3427.       3427.       3428.       3428.    
        3428.       3430.       3430.       3430.       3430.       3430.       3430.       3430.       3430.       3430.    
        3430.       3430.       3430.       3432.       3432.       3432.       3433.       3433.       3433.       3433.    
        3433.       3433.       3433.       3433.       3433.       3433.       3436.       3436.       3436.       3438.    
        3438.       3438.       3438.       3438.       3438.       3437.       3437.       3437.       3438.       3438.    
        3438.       3440.       3440.       3440.       3443.       3443.       3443.       3445.       3445.       3445.    
        3445.       3445.       3445.       3443.       3443.       3443.       3443.       3444.       3446.       3447.    
        3448.       3448.       3446.       3446.       3446.       3446.       3446.       3447.       3449.       3449.    
        3448.       3449.       3449.       3450.       3450.       3449.    
  34    3422.       3419.       3418.       3416.       3416.       3416.       3416.       3413.       3413.       3413.    
        3412.       3413.       3416.       3419.       3418.       3418.       3418.       3418.       3418.       3416.    
        3416.       3416.       3416.       3416.       3416.       3416.       3420.       3420.       3420.       3421.    
        3421.       3421.       3420.       3420.       3420.       3419.       3419.       3419.       3421.       3421.    
        3421.       3422.       3422.       3422.       3421.       3421.       3421.       3421.       3421.       3421.    
        3421.       3421.       3421.       3422.       3422.       3422.       3422.       3422.       3422.       3422.    
        3422.       3422.       3424.       3424.       3424.       3425.       3425.       3425.       3427.       3427.    
        3427.       3426.       3426.       3426.       3426.       3427.       3427.       3427.       3427.       3427.    
        3427.       3427.       3427.       3427.       3426.       3426.       3426.       3427.       3427.       3427.    
        3427.       3427.       3427.       3428.       3428.       3428.       3428.       3428.       3428.       3429.    
        3429.       3429.       3429.       3429.       3429.       3430.       3430.       3430.       3431.       3431.    
        3431.       3433.       3433.       3433.       3433.       3433.       3433.       3433.       3433.       3433.    
        3434.       3434.       3434.       3435.       3435.       3435.       3434.       3434.       3434.       3432.    
        3432.       3432.       3432.       3432.       3432.       3432.       3434.       3434.       3434.       3437.    
        3437.       3437.       3438.       3438.       3438.       3438.       3438.       3438.       3439.       3439.    
        3439.       3438.       3438.       3438.       3439.       3439.       3439.       3441.       3441.       3441.    
        3442.       3442.       3442.       3443.       3443.       3444.       3444.       3445.       3446.       3446.    
        3448.       3448.       3448.       3448.       3447.       3448.       3448.       3451.       3452.       3451.    
        3450.       3451.       3451.       3451.       3452.       3452.    
  35    3422.       3419.       3418.       3416.       3416.       3416.       3416.       3413.       3413.       3413.    
        3412.       3413.       3416.       3419.       3418.       3418.       3418.       3418.       3418.       3416.    
        3416.       3416.       3416.       3416.       3416.       3416.       3420.       3420.       3420.       3421.    
        3421.       3421.       3420.       3420.       3420.       3419.       3419.       3419.       3421.       3421.    
        3421.       3422.       3422.       3422.       3421.       3421.       3421.       3421.       3421.       3421.    
        3421.       3421.       3421.       3422.       3422.       3422.       3422.       3422.       3422.       3422.    
        3422.       3422.       3424.       3424.       3424.       3425.       3425.       3425.       3427.       3427.    
        3427.       3426.       3426.       3426.       3426.       3427.       3427.       3427.       3427.       3427.    
        3427.       3427.       3427.       3427.       3426.       3426.       3426.       3427.       3427.       3427.    
        3427.       3427.       3427.       3428.       3428.       3428.       3428.       3428.       3428.       3429.    
        3429.       3429.       3429.       3429.       3429.       3430.       3430.       3430.       3431.       3431.    
        3431.       3433.       3433.       3433.       3433.       3433.       3433.       3433.       3433.       3433.    
        3434.       3434.       3434.       3435.       3435.       3435.       3434.       3434.       3434.       3432.    
        3432.       3432.       3432.       3432.       3432.       3432.       3434.       3434.       3434.       3437.    
        3437.       3437.       3438.       3438.       3438.       3438.       3438.       3438.       3439.       3439.    
        3439.       3438.       3438.       3438.       3439.       3439.       3439.       3441.       3441.       3441.    
        3442.       3442.       3442.       3443.       3443.       3444.       3444.       3445.       3446.       3446.    
        3448.       3448.       3448.       3448.       3447.       3448.       3448.       3451.       3452.       3451.    
        3450.       3451.       3451.       3451.       3452.       3452.    
  36    3422.       3419.       3418.       3416.       3416.       3416.       3416.       3413.       3413.       3413.    
        3412.       3413.       3416.       3419.       3418.       3418.       3418.       3418.       3418.       3416.    
        3416.       3416.       3416.       3416.       3416.       3416.       3420.       3420.       3420.       3421.    
        3421.       3421.       3420.       3420.       3420.       3419.       3419.       3419.       3421.       3421.    
        3421.       3422.       3422.       3422.       3421.       3421.       3421.       3421.       3421.       3421.    
        3421.       3421.       3421.       3422.       3422.       3422.       3422.       3422.       3422.       3422.    
        3422.       3422.       3424.       3424.       3424.       3425.       3425.       3425.       3427.       3427.    
        3427.       3426.       3426.       3426.       3426.       3427.       3427.       3427.       3427.       3427.    
        3427.       3427.       3427.       3427.       3426.       3426.       3426.       3427.       3427.       3427.    
        3427.       3427.       3427.       3428.       3428.       3428.       3428.       3428.       3428.       3429.    
        3429.       3429.       3429.       3429.       3429.       3430.       3430.       3430.       3431.       3431.    
        3431.       3433.       3433.       3433.       3433.       3433.       3433.       3433.       3433.       3433.    
        3434.       3434.       3434.       3435.       3435.       3435.       3434.       3434.       3434.       3434.    
        3432.       3432.       3432.       3432.       3432.       3432.       3434.       3434.       3434.       3437.    
        3437.       3437.       3438.       3438.       3438.       3438.       3438.       3438.       3439.       3439.    
        3439.       3438.       3438.       3438.       3439.       3439.       3439.       3441.       3441.       3441.    
        3442.       3442.       3442.       3443.       3443.       3444.       3444.       3445.       3446.       3446.    
        3448.       3448.       3448.       3448.       3447.       3448.       3448.       3451.       3452.       3451.    
        3450.       3451.       3451.       3451.       3452.       3452.    
  37    3425.       3422.       3419.       3418.       3418.       3418.       3416.       3415.       3414.       3414.    
        3412.       3413.       3416.       3416.       3416.       3416.       3418.       3418.       3418.       3416.    
        3416.       3416.       3416.       3415.       3415.       3415.       3416.       3416.       3416.       3418.    
        3418.       3418.       3418.       3418.       3418.       3418.       3418.       3418.       3420.       3420.    
        3420.       3421.       3421.       3421.       3421.       3421.       3421.       3421.       3421.       3421.    
        3422.       3422.       3422.       3423.       3423.       3423.       3424.       3424.       3424.       3425.    
        3425.       3425.       3426.       3426.       3426.       3427.       3427.       3427.       3427.       3427.    
        3427.       3427.       3427.       3427.       3427.       3427.       3427.       3427.       3427.       3427.    
        3427.       3427.       3427.       3427.       3427.       3427.       3427.       3427.       3427.       3427.    
        3428.       3428.       3428.       3429.       3429.       3429.       3430.       3430.       3430.       3430.    
        3430.       3430.       3430.       3430.       3430.       3431.       3431.       3431.       3431.       3431.    
        3431.       3431.       3431.       3431.       3432.       3432.       3432.       3433.       3433.       3433.    
        3433.       3433.       3433.       3435.       3435.       3435.       3436.       3436.       3436.       3435.    
        3435.       3435.       3435.       3434.       3434.       3434.       3436.       3436.       3436.       3437.    
        3437.       3437.       3438.       3438.       3438.       3438.       3438.       3438.       3438.       3438.    
        3438.       3438.       3438.       3438.       3437.       3437.       3437.       3439.       3439.       3439.    
        3440.       3440.       3440.       3443.       3443.       3445.       3445.       3444.       3444.       3445.    
        3446.       3446.       3447.       3449.       3450.       3451.       3451.       3451.       3452.       3450.    
        3449.       3451.       3451.       3451.       3452.       3453.    
  38    3425.       3422.       3419.       3418.       3418.       3418.       3416.       3415.       3414.       3414.    
        3412.       3413.       3416.       3416.       3416.       3416.       3418.       3418.       3418.       3416.    
        3416.       3416.       3416.       3415.       3415.       3415.       3416.       3416.       3416.       3418.    
        3418.       3418.       3418.       3418.       3418.       3418.       3418.       3418.       3420.       3420.    
        3420.       3421.       3421.       3421.       3421.       3421.       3421.       3421.       3421.       3421.    
        3422.       3422.       3422.       3423.       3423.       3423.       3424.       3424.       3424.       3425.    
        3425.       3425.       3426.       3426.       3426.       3427.       3427.       3427.       3427.       3427.    
        3427.       3427.       3427.       3427.       3427.       3427.       3427.       3427.       3427.       3427.    
        3427.       3427.       3427.       3427.       3427.       3427.       3427.       3427.       3427.       3427.    
        3428.       3428.       3428.       3429.       3429.       3429.       3430.       3430.       3430.       3430.    
        3430.       3430.       3430.       3430.       3430.       3431.       3431.       3431.       3431.       3431.    
        3431.       3431.       3431.       3431.       3432.       3432.       3432.       3433.       3433.       3433.    
        3433.       3433.       3433.       3435.       3435.       3435.       3436.       3436.       3436.       3435.    
        3435.       3435.       3435.       3434.       3434.       3434.       3436.       3436.       3436.       3437.    
        3437.       3437.       3438.       3438.       3438.       3438.       3438.       3438.       3438.       3438.    
        3438.       3438.       3438.       3438.       3437.       3437.       3437.       3439.       3439.       3439.    
        3440.       3440.       3440.       3443.       3443.       3445.       3445.       3444.       3444.       3445.    
        3446.       3446.       3447.       3449.       3450.       3451.       3451.       3451.       3452.       3450.    
        3449.       3451.       3451.       3451.       3452.       3453.    
  39    3425.       3422.       3419.       3418.       3418.       3418.       3416.       3415.       3414.       3414.    
        3412.       3413.       3416.       3416.       3416.       3416.       3418.       3418.       3418.       3416.    
        3416.       3416.       3416.       3415.       3415.       3415.       3416.       3416.       3416.       3418.    
        3418.       3418.       3418.       3418.       3418.       3418.       3418.       3418.       3420.       3420.    
        3420.       3421.       3421.       3421.       3421.       3421.       3421.       3421.       3421.       3421.    
        3422.       3422.       3422.       3423.       3423.       3423.       3424.       3424.       3424.       3425.    
        3425.       3425.       3426.       3426.       3426.       3427.       3427.       3427.       3427.       3427.    
        3427.       3427.       3427.       3427.       3427.       3427.       3427.       3427.       3427.       3427.    
        3427.       3427.       3427.       3427.       3427.       3427.       3427.       3427.       3427.       3427.    
        3428.       3428.       3428.       3429.       3429.       3429.       3430.       3430.       3430.       3430.    
        3430.       3430.       3430.       3430.       3430.       3431.       3431.       3431.       3431.       3431.    
        3431.       3431.       3431.       3431.       3432.       3432.       3432.       3433.       3433.       3433.    
        3433.       3433.       3433.       3435.       3435.       3435.       3436.       3436.       3436.       3435.    
        3435.       3435.       3435.       3434.       3434.       3434.       3436.       3436.       3436.       3437.    
        3437.       3437.       3438.       3438.       3438.       3438.       3438.       3438.       3438.       3438.    
        3438.       3438.       3438.       3438.       3437.       3437.       3437.       3439.       3439.       3439.    
        3440.       3440.       3440.       3443.       3443.       3445.       3445.       3444.       3444.       3445.    
        3446.       3446.       3447.       3449.       3450.       3451.       3451.       3451.       3452.       3450.    
        3449.       3451.       3451.       3451.       3452.       3453.    
  40    3431.       3427.       3422.       3418.       3418.       3418.       3418.       3418.       3414.       3414.    
        3416.       3417.       3413.       3416.       3417.       3417.       3416.       3416.       3416.       3417.    
        3417.       3417.       3417.       3414.       3414.       3414.       3414.       3414.       3414.       3416.    
        3416.       3416.       3416.       3416.       3416.       3419.       3419.       3419.       3421.       3421.    
        3421.       3421.       3421.       3421.       3421.       3421.       3421.       3421.       3421.       3421.    
        3421.       3421.       3421.       3422.       3422.       3422.       3423.       3423.       3423.       3424.    
        3424.       3424.       3424.       3424.       3424.       3424.       3424.       3424.       3424.       3424.    
        3424.       3424.       3424.       3424.       3424.       3425.       3425.       3425.       3425.       3425.    
        3425.       3425.       3425.       3425.       3425.       3425.       3425.       3426.       3426.       3426.    
        3428.       3428.       3428.       3429.       3429.       3429.       3429.       3429.       3429.       3429.    
        3429.       3429.       3430.       3430.       3430.       3430.       3430.       3430.       3430.       3430.    
        3430.       3430.       3430.       3430.       3430.       3430.       3430.       3430.       3430.       3430.    
        3431.       3431.       3431.       3433.       3433.       3433.       3433.       3433.       3433.       3434.    
        3434.       3434.       3434.       3434.       3434.       3434.       3434.       3434.       3434.       3436.    
        3436.       3436.       3437.       3437.       3437.       3439.       3439.       3439.       3439.       3439.    
        3439.       3439.       3439.       3439.       3440.       3440.       3440.       3440.       3440.       3440.    
        3442.       3442.       3442.       3444.       3444.       3444.       3444.       3444.       3445.       3447.    
        3446.       3446.       3446.       3448.       3447.       3450.       3450.       3451.       3451.       3450.    
        3449.       3449.       3449.       3450.       3451.       3452.    
  41    3431.       3427.       3422.       3418.       3418.       3418.       3418.       3418.       3414.       3414.    
        3416.       3417.       3413.       3416.       3417.       3417.       3416.       3416.       3416.       3417.    
        3417.       3417.       3417.       3414.       3414.       3414.       3414.       3414.       3414.       3416.    
        3416.       3416.       3416.       3416.       3416.       3419.       3419.       3419.       3421.       3421.    
        3421.       3421.       3421.       3421.       3421.       3421.       3421.       3421.       3421.       3421.    
        3421.       3421.       3421.       3422.       3422.       3422.       3423.       3423.       3423.       3424.    
        3424.       3424.       3424.       3424.       3424.       3424.       3424.       3424.       3424.       3424.    
        3424.       3424.       3424.       3424.       3424.       3425.       3425.       3425.       3425.       3425.    
        3425.       3425.       3425.       3425.       3425.       3425.       3425.       3426.       3426.       3426.    
        3428.       3428.       3428.       3429.       3429.       3429.       3429.       3429.       3429.       3429.    
        3429.       3429.       3430.       3430.       3430.       3430.       3430.       3430.       3430.       3430.    
        3430.       3430.       3430.       3430.       3430.       3430.       3430.       3430.       3430.       3430.    
        3431.       3431.       3431.       3433.       3433.       3433.       3433.       3433.       3433.       3434.    
        3434.       3434.       3434.       3434.       3434.       3434.       3434.       3434.       3434.       3436.    
        3436.       3436.       3437.       3437.       3437.       3439.       3439.       3439.       3439.       3439.    
        3439.       3439.       3439.       3439.       3440.       3440.       3440.       3440.       3440.       3440.    
        3442.       3442.       3442.       3444.       3444.       3444.       3444.       3444.       3445.       3447.    
        3446.       3446.       3446.       3448.       3447.       3450.       3450.       3451.       3451.       3450.    
        3449.       3449.       3449.       3450.       3451.       3452.    
  42    3431.       3427.       3422.       3418.       3418.       3418.       3418.       3418.       3414.       3414.    
        3416.       3417.       3413.       3416.       3417.       3417.       3416.       3416.       3416.       3417.    
        3417.       3417.       3417.       3414.       3414.       3414.       3414.       3414.       3414.       3416.    
        3416.       3416.       3416.       3416.       3416.       3419.       3419.       3419.       3421.       3421.    
        3421.       3421.       3421.       3421.       3421.       3421.       3421.       3421.       3421.       3421.    
        3421.       3421.       3421.       3422.       3422.       3422.       3423.       3423.       3423.       3424.    
        3424.       3424.       3424.       3424.       3424.       3424.       3424.       3424.       3424.       3424.    
        3424.       3424.       3424.       3424.       3424.       3425.       3425.       3425.       3425.       3425.    
        3425.       3425.       3425.       3425.       3425.       3425.       3425.       3426.       3426.       3426.    
        3428.       3428.       3428.       3429.       3429.       3429.       3429.       3429.       3429.       3429.    
        3429.       3429.       3430.       3430.       3430.       3430.       3430.       3430.       3430.       3430.    
        3430.       3430.       3430.       3430.       3430.       3430.       3430.       3430.       3430.       3430.    
        3431.       3431.       3431.       3433.       3433.       3433.       3433.       3433.       3433.       3434.    
        3434.       3434.       3434.       3434.       3434.       3434.       3434.       3434.       3434.       3436.    
        3436.       3436.       3437.       3437.       3437.       3439.       3439.       3439.       3439.       3439.    
        3439.       3439.       3439.       3439.       3440.       3440.       3440.       3440.       3440.       3440.    
        3442.       3442.       3442.       3444.       3444.       3444.       3444.       3444.       3445.       3447.    
        3446.       3446.       3446.       3448.       3447.       3450.       3450.       3451.       3451.       3450.    
        3449.       3449.       3449.       3450.       3451.       3452.    
  43    3431.       3427.       3422.       3418.       3418.       3418.       3418.       3418.       3414.       3414.    
        3416.       3417.       3413.       3416.       3417.       3417.       3416.       3416.       3416.       3417.    
        3417.       3417.       3417.       3414.       3414.       3414.       3414.       3414.       3414.       3416.    
        3416.       3416.       3416.       3416.       3416.       3419.       3419.       3419.       3421.       3421.    
        3421.       3421.       3421.       3421.       3421.       3421.       3421.       3421.       3421.       3421.    
        3421.       3421.       3421.       3422.       3422.       3422.       3423.       3423.       3423.       3424.    
        3424.       3424.       3424.       3424.       3424.       3424.       3424.       3424.       3424.       3424.    
        3424.       3424.       3424.       3424.       3424.       3425.       3425.       3425.       3425.       3425.    
        3425.       3425.       3425.       3425.       3425.       3425.       3425.       3426.       3426.       3426.    
        3428.       3428.       3428.       3429.       3429.       3429.       3429.       3429.       3429.       3429.    
        3429.       3429.       3430.       3430.       3430.       3430.       3430.       3430.       3430.       3430.    
        3430.       3430.       3430.       3430.       3430.       3430.       3430.       3430.       3430.       3430.    
        3431.       3431.       3431.       3433.       3433.       3433.       3433.       3433.       3433.       3434.    
        3434.       3434.       3434.       3434.       3434.       3434.       3434.       3434.       3434.       3436.    
        3436.       3436.       3437.       3437.       3437.       3439.       3439.       3439.       3439.       3439.    
        3439.       3439.       3439.       3439.       3440.       3440.       3440.       3440.       3440.       3440.    
        3442.       3442.       3442.       3444.       3444.       3444.       3444.       3444.       3445.       3447.    
        3446.       3446.       3446.       3448.       3447.       3450.       3450.       3451.       3451.       3450.    
        3449.       3449.       3449.       3450.       3451.       3452.    
  44    3433.       3429.       3424.       3418.       3418.       3418.       3420.       3422.       3419.       3419.    
        3416.       3414.       3419.       3417.       3418.       3418.       3416.       3416.       3416.       3416.    
        3416.       3416.       3416.       3416.       3416.       3416.       3416.       3416.       3416.       3416.    
        3416.       3416.       3419.       3419.       3419.       3419.       3419.       3419.       3419.       3419.    
        3419.       3421.       3421.       3421.       3421.       3421.       3421.       3421.       3421.       3421.    
        3421.       3421.       3421.       3423.       3423.       3423.       3424.       3424.       3424.       3425.    
        3425.       3425.       3425.       3425.       3425.       3426.       3426.       3426.       3425.       3425.    
        3425.       3425.       3425.       3425.       3425.       3426.       3426.       3426.       3427.       3427.    
        3427.       3425.       3425.       3425.       3425.       3425.       3425.       3427.       3427.       3427.    
        3428.       3428.       3428.       3428.       3428.       3428.       3430.       3430.       3430.       3430.    
        3430.       3430.       3430.       3430.       3430.       3430.       3430.       3430.       3429.       3429.    
        3429.       3429.       3429.       3429.       3429.       3429.       3429.       3428.       3428.       3428.    
        3428.       3428.       3428.       3429.       3429.       3429.       3430.       3430.       3430.       3431.    
        3431.       3431.       3431.       3432.       3432.       3432.       3431.       3431.       3431.       3433.    
        3433.       3433.       3434.       3434.       3434.       3437.       3437.       3437.       3439.       3439.    
        3439.       3440.       3440.       3440.       3440.       3440.       3440.       3442.       3442.       3442.    
        3443.       3443.       3443.       3444.       3444.       3443.       3443.       3443.       3445.       3448.    
        3449.       3449.       3450.       3451.       3452.       3451.       3451.       3450.       3450.       3451.    
        3450.       3450.       3450.       3450.       3451.       3453.    
  45    3433.       3429.       3424.       3418.       3418.       3418.       3420.       3422.       3419.       3419.    
        3416.       3414.       3419.       3417.       3418.       3418.       3416.       3416.       3416.       3416.    
        3416.       3416.       3416.       3416.       3416.       3416.       3416.       3416.       3416.       3416.    
        3416.       3416.       3419.       3419.       3419.       3419.       3419.       3419.       3419.       3419.    
        3419.       3421.       3421.       3421.       3421.       3421.       3421.       3421.       3421.       3421.    
        3421.       3421.       3421.       3423.       3423.       3423.       3424.       3424.       3424.       3425.    
        3425.       3425.       3425.       3425.       3425.       3426.       3426.       3426.       3425.       3425.    
        3425.       3425.       3425.       3425.       3425.       3426.       3426.       3426.       3427.       3427.    
        3427.       3425.       3425.       3425.       3425.       3425.       3425.       3427.       3427.       3427.    
        3428.       3428.       3428.       3428.       3428.       3428.       3430.       3430.       3430.       3430.    
        3430.       3430.       3430.       3430.       3430.       3430.       3430.       3430.       3429.       3429.    
        3429.       3429.       3429.       3429.       3429.       3429.       3429.       3428.       3428.       3428.    
        3428.       3428.       3428.       3429.       3429.       3429.       3430.       3430.       3430.       3431.    
        3431.       3431.       3431.       3432.       3432.       3432.       3431.       3431.       3431.       3433.    
        3433.       3433.       3434.       3434.       3434.       3437.       3437.       3437.       3439.       3439.    
        3439.       3440.       3440.       3440.       3440.       3440.       3440.       3442.       3442.       3442.    
        3443.       3443.       3443.       3444.       3444.       3443.       3443.       3443.       3445.       3448.    
        3449.       3449.       3450.       3451.       3452.       3451.       3451.       3450.       3450.       3451.    
        3450.       3450.       3450.       3450.       3451.       3453.    
  46    3433.       3429.       3424.       3418.       3418.       3418.       3420.       3422.       3419.       3419.    
        3416.       3414.       3419.       3417.       3418.       3418.       3416.       3416.       3416.       3416.    
        3416.       3416.       3416.       3416.       3416.       3416.       3416.       3416.       3416.       3416.    
        3416.       3416.       3419.       3419.       3419.       3419.       3419.       3419.       3419.       3419.    
        3419.       3421.       3421.       3421.       3421.       3421.       3421.       3421.       3421.       3421.    
        3421.       3421.       3421.       3423.       3423.       3423.       3424.       3424.       3424.       3425.    
        3425.       3425.       3425.       3425.       3425.       3426.       3426.       3426.       3425.       3425.    
        3425.       3425.       3425.       3425.       3425.       3426.       3426.       3426.       3427.       3427.    
        3427.       3425.       3425.       3425.       3425.       3425.       3425.       3427.       3427.       3427.    
        3428.       3428.       3428.       3428.       3428.       3428.       3430.       3430.       3430.       3430.    
        3430.       3430.       3430.       3430.       3430.       3430.       3430.       3430.       3429.       3429.    
        3429.       3429.       3429.       3429.       3429.       3429.       3429.       3428.       3428.       3428.    
        3428.       3428.       3428.       3429.       3429.       3429.       3430.       3430.       3430.       3431.    
        3431.       3431.       3431.       3432.       3432.       3432.       3431.       3431.       3431.       3433.    
        3433.       3433.       3434.       3434.       3434.       3437.       3437.       3437.       3439.       3439.    
        3439.       3440.       3440.       3440.       3440.       3440.       3440.       3442.       3442.       3442.    
        3443.       3443.       3443.       3444.       3444.       3443.       3443.       3443.       3445.       3448.    
        3449.       3449.       3450.       3451.       3452.       3451.       3451.       3450.       3450.       3451.    
        3450.       3450.       3450.       3450.       3451.       3453.    
  47    3434.       3431.       3427.       3422.       3422.       3420.       3422.       3424.       3421.       3421.    
        3418.       3417.       3417.       3417.       3418.       3418.       3418.       3418.       3418.       3417.    
        3417.       3417.       3417.       3418.       3418.       3418.       3418.       3418.       3418.       3418.    
        3418.       3418.       3419.       3419.       3419.       3420.       3420.       3420.       3420.       3420.    
        3420.       3419.       3419.       3419.       3419.       3419.       3419.       3421.       3421.       3421.    
        3421.       3421.       3421.       3422.       3422.       3422.       3422.       3422.       3422.       3423.    
        3423.       3423.       3424.       3424.       3424.       3424.       3424.       3424.       3424.       3424.    
        3424.       3425.       3425.       3425.       3425.       3425.       3425.       3425.       3425.       3425.    
        3425.       3427.       3427.       3427.       3428.       3428.       3428.       3428.       3428.       3428.    
        3428.       3428.       3428.       3428.       3428.       3428.       3429.       3429.       3429.       3430.    
        3430.       3430.       3431.       3431.       3431.       3431.       3431.       3431.       3430.       3430.    
        3430.       3430.       3430.       3430.       3430.       3430.       3430.       3430.       3430.       3430.    
        3430.       3430.       3430.       3431.       3431.       3431.       3433.       3433.       3433.       3434.    
        3434.       3434.       3434.       3434.       3434.       3434.       3434.       3434.       3434.       3434.    
        3434.       3434.       3436.       3436.       3436.       3439.       3439.       3439.       3440.       3440.    
        3440.       3440.       3440.       3440.       3441.       3441.       3441.       3443.       3443.       3443.    
        3443.       3443.       3443.       3443.       3443.       3443.       3443.       3445.       3446.       3446.    
        3448.       3448.       3450.       3451.       3452.       3451.       3451.       3449.       3449.       3449.    
        3449.       3450.       3450.       3450.       3450.       3451.    
  48    3434.       3431.       3427.       3422.       3422.       3420.       3422.       3424.       3421.       3421.    
        3418.       3417.       3417.       3417.       3418.       3418.       3418.       3418.       3418.       3417.    
        3417.       3417.       3417.       3418.       3418.       3418.       3418.       3418.       3418.       3418.    
        3418.       3418.       3419.       3419.       3419.       3420.       3420.       3420.       3420.       3420.    
        3420.       3419.       3419.       3419.       3419.       3419.       3419.       3421.       3421.       3421.    
        3421.       3421.       3421.       3422.       3422.       3422.       3422.       3422.       3422.       3423.    
        3423.       3423.       3424.       3424.       3424.       3424.       3424.       3424.       3424.       3424.    
        3424.       3425.       3425.       3425.       3425.       3425.       3425.       3425.       3425.       3425.    
        3425.       3427.       3427.       3427.       3428.       3428.       3428.       3428.       3428.       3428.    
        3428.       3428.       3428.       3428.       3428.       3428.       3429.       3429.       3429.       3430.    
        3430.       3430.       3431.       3431.       3431.       3431.       3431.       3431.       3430.       3430.    
        3430.       3430.       3430.       3430.       3430.       3430.       3430.       3430.       3430.       3430.    
        3430.       3430.       3430.       3431.       3431.       3431.       3433.       3433.       3433.       3434.    
        3434.       3434.       3434.       3434.       3434.       3434.       3434.       3434.       3434.       3434.    
        3434.       3434.       3436.       3436.       3436.       3439.       3439.       3439.       3440.       3440.    
        3440.       3440.       3440.       3440.       3441.       3441.       3441.       3443.       3443.       3443.    
        3443.       3443.       3443.       3443.       3443.       3443.       3443.       3445.       3446.       3446.    
        3448.       3448.       3450.       3451.       3452.       3451.       3451.       3449.       3449.       3449.    
        3449.       3450.       3450.       3450.       3450.       3451.    
  49    3434.       3431.       3427.       3422.       3422.       3420.       3422.       3424.       3421.       3421.    
        3418.       3417.       3417.       3417.       3418.       3418.       3418.       3418.       3418.       3417.    
        3417.       3417.       3417.       3418.       3418.       3418.       3418.       3418.       3418.       3418.    
        3418.       3418.       3419.       3419.       3419.       3420.       3420.       3420.       3420.       3420.    
        3420.       3419.       3419.       3419.       3419.       3419.       3419.       3421.       3421.       3421.    
        3421.       3421.       3421.       3422.       3422.       3422.       3422.       3422.       3422.       3423.    
        3423.       3423.       3424.       3424.       3424.       3424.       3424.       3424.       3424.       3424.    
        3424.       3425.       3425.       3425.       3425.       3425.       3425.       3425.       3425.       3425.    
        3425.       3427.       3427.       3427.       3428.       3428.       3428.       3428.       3428.       3428.    
        3428.       3428.       3428.       3428.       3428.       3428.       3429.       3429.       3429.       3430.    
        3430.       3430.       3431.       3431.       3431.       3431.       3431.       3431.       3430.       3430.    
        3430.       3430.       3430.       3430.       3430.       3430.       3430.       3430.       3430.       3430.    
        3430.       3430.       3430.       3431.       3431.       3431.       3433.       3433.       3433.       3434.    
        3434.       3434.       3434.       3434.       3434.       3434.       3434.       3434.       3434.       3434.    
        3434.       3434.       3436.       3436.       3436.       3439.       3439.       3439.       3440.       3440.    
        3440.       3440.       3440.       3440.       3441.       3441.       3441.       3443.       3443.       3443.    
        3443.       3443.       3443.       3443.       3443.       3443.       3443.       3445.       3446.       3446.    
        3448.       3448.       3450.       3451.       3452.       3451.       3451.       3449.       3449.       3449.    
        3449.       3450.       3450.       3450.       3450.       3451.    
  50    3435.       3432.       3429.       3424.       3424.       3421.       3421.       3422.       3417.       3417.    
        3415.       3418.       3415.       3415.       3416.       3416.       3416.       3416.       3416.       3416.    
        3416.       3416.       3416.       3418.       3418.       3418.       3417.       3417.       3417.       3417.    
        3417.       3417.       3419.       3419.       3419.       3422.       3422.       3422.       3421.       3421.    
        3421.       3421.       3421.       3421.       3421.       3421.       3421.       3422.       3422.       3422.    
        3423.       3423.       3423.       3424.       3424.       3424.       3424.       3424.       3424.       3424.    
        3424.       3424.       3425.       3425.       3425.       3425.       3425.       3425.       3426.       3426.    
        3426.       3427.       3427.       3427.       3427.       3427.       3427.       3427.       3428.       3428.    
        3428.       3429.       3429.       3429.       3429.       3429.       3429.       3429.       3429.       3429.    
        3429.       3429.       3429.       3429.       3429.       3429.       3429.       3429.       3429.       3429.    
        3429.       3429.       3430.       3430.       3430.       3430.       3430.       3430.       3431.       3431.    
        3431.       3433.       3433.       3433.       3432.       3432.       3432.       3432.       3432.       3432.    
        3433.       3433.       3433.       3433.       3433.       3433.       3433.       3433.       3433.       3433.    
        3433.       3433.       3433.       3433.       3433.       3433.       3434.       3434.       3434.       3434.    
        3434.       3434.       3436.       3436.       3436.       3440.       3440.       3440.       3440.       3440.    
        3440.       3440.       3440.       3440.       3441.       3441.       3441.       3442.       3442.       3442.    
        3443.       3443.       3443.       3443.       3443.       3443.       3443.       3444.       3445.       3445.    
        3446.       3446.       3447.       3449.       3449.       3449.       3449.       3448.       3448.       3448.    
        3448.       3449.       3449.       3449.       3450.       3451.    
  51    3435.       3432.       3429.       3424.       3424.       3421.       3421.       3422.       3417.       3417.    
        3415.       3418.       3415.       3415.       3416.       3416.       3416.       3416.       3416.       3416.    
        3416.       3416.       3416.       3418.       3418.       3418.       3417.       3417.       3417.       3417.    
        3417.       3417.       3419.       3419.       3419.       3422.       3422.       3422.       3421.       3421.    
        3421.       3421.       3421.       3421.       3421.       3421.       3421.       3422.       3422.       3422.    
        3423.       3423.       3423.       3424.       3424.       3424.       3424.       3424.       3424.       3424.    
        3424.       3424.       3425.       3425.       3425.       3425.       3425.       3425.       3426.       3426.    
        3426.       3427.       3427.       3427.       3427.       3427.       3427.       3427.       3428.       3428.    
        3428.       3429.       3429.       3429.       3429.       3429.       3429.       3429.       3429.       3429.    
        3429.       3429.       3429.       3429.       3429.       3429.       3429.       3429.       3429.       3429.    
        3429.       3429.       3430.       3430.       3430.       3430.       3430.       3430.       3431.       3431.    
        3431.       3433.       3433.       3433.       3432.       3432.       3432.       3432.       3432.       3432.    
        3433.       3433.       3433.       3433.       3433.       3433.       3433.       3433.       3433.       3433.    
        3433.       3433.       3433.       3433.       3433.       3433.       3434.       3434.       3434.       3434.    
        3434.       3434.       3436.       3436.       3436.       3440.       3440.       3440.       3440.       3440.    
        3440.       3440.       3440.       3440.       3441.       3441.       3441.       3442.       3442.       3442.    
        3443.       3443.       3443.       3443.       3443.       3443.       3443.       3444.       3445.       3445.    
        3446.       3446.       3447.       3449.       3449.       3449.       3449.       3448.       3448.       3448.    
        3448.       3449.       3449.       3449.       3450.       3451.    
  52    3435.       3432.       3429.       3424.       3424.       3421.       3421.       3422.       3417.       3417.    
        3415.       3418.       3415.       3415.       3416.       3416.       3416.       3416.       3416.       3416.    
        3416.       3416.       3416.       3418.       3418.       3418.       3417.       3417.       3417.       3417.    
        3417.       3417.       3419.       3419.       3419.       3422.       3422.       3422.       3421.       3421.    
        3421.       3421.       3421.       3421.       3421.       3421.       3421.       3422.       3422.       3422.    
        3423.       3423.       3423.       3424.       3424.       3424.       3424.       3424.       3424.       3424.    
        3424.       3424.       3425.       3425.       3425.       3425.       3425.       3425.       3426.       3426.    
        3426.       3427.       3427.       3427.       3427.       3427.       3427.       3427.       3428.       3428.    
        3428.       3429.       3429.       3429.       3429.       3429.       3429.       3429.       3429.       3429.    
        3429.       3429.       3429.       3429.       3429.       3429.       3429.       3429.       3429.       3429.    
        3429.       3429.       3430.       3430.       3430.       3430.       3430.       3430.       3431.       3431.    
        3431.       3433.       3433.       3433.       3432.       3432.       3432.       3432.       3432.       3432.    
        3433.       3433.       3433.       3433.       3433.       3433.       3433.       3433.       3433.       3433.    
        3433.       3433.       3433.       3433.       3433.       3433.       3434.       3434.       3434.       3434.    
        3434.       3434.       3436.       3436.       3436.       3440.       3440.       3440.       3440.       3440.    
        3440.       3440.       3440.       3440.       3441.       3441.       3441.       3442.       3442.       3442.    
        3443.       3443.       3443.       3443.       3443.       3443.       3443.       3444.       3445.       3445.    
        3446.       3446.       3447.       3449.       3449.       3449.       3449.       3448.       3448.       3448.    
        3448.       3449.       3449.       3449.       3450.       3451.    
  53    3436.       3432.       3430.       3427.       3427.       3424.       3422.       3419.       3416.       3416.    
        3415.       3416.       3414.       3416.       3416.       3416.       3417.       3417.       3417.       3416.    
        3416.       3416.       3416.       3418.       3418.       3418.       3419.       3419.       3419.       3419.    
        3419.       3419.       3420.       3420.       3420.       3421.       3421.       3421.       3420.       3420.    
        3420.       3419.       3419.       3419.       3421.       3421.       3421.       3422.       3422.       3422.    
        3423.       3423.       3423.       3424.       3424.       3424.       3424.       3424.       3424.       3425.    
        3425.       3425.       3425.       3425.       3425.       3425.       3425.       3425.       3427.       3427.    
        3427.       3427.       3427.       3427.       3427.       3428.       3428.       3428.       3428.       3428.    
        3428.       3429.       3429.       3429.       3429.       3429.       3429.       3429.       3429.       3429.    
        3428.       3428.       3428.       3428.       3428.       3428.       3428.       3428.       3428.       3430.    
        3430.       3430.       3432.       3432.       3432.       3432.       3432.       3432.       3432.       3432.    
        3432.       3432.       3432.       3432.       3431.       3431.       3431.       3431.       3431.       3431.    
        3432.       3432.       3432.       3433.       3433.       3433.       3432.       3432.       3432.       3433.    
        3433.       3433.       3433.       3434.       3434.       3434.       3437.       3437.       3437.       3438.    
        3438.       3438.       3439.       3439.       3439.       3440.       3440.       3440.       3442.       3442.    
        3442.       3441.       3441.       3441.       3440.       3440.       3440.       3442.       3442.       3442.    
        3442.       3442.       3442.       3442.       3442.       3442.       3442.       3442.       3443.       3443.    
        3445.       3445.       3446.       3448.       3450.       3449.       3449.       3448.       3448.       3448.    
        3449.       3451.       3451.       3451.       3452.       3452.    
  54    3436.       3432.       3430.       3427.       3427.       3424.       3422.       3419.       3416.       3416.    
        3415.       3416.       3414.       3416.       3416.       3416.       3417.       3417.       3417.       3416.    
        3416.       3416.       3416.       3418.       3418.       3418.       3419.       3419.       3419.       3419.    
        3419.       3419.       3420.       3420.       3420.       3421.       3421.       3421.       3420.       3420.    
        3420.       3419.       3419.       3419.       3421.       3421.       3421.       3422.       3422.       3422.    
        3423.       3423.       3423.       3424.       3424.       3424.       3424.       3424.       3424.       3425.    
        3425.       3425.       3425.       3425.       3425.       3425.       3425.       3425.       3427.       3427.    
        3427.       3427.       3427.       3427.       3427.       3428.       3428.       3428.       3428.       3428.    
        3428.       3429.       3429.       3429.       3429.       3429.       3429.       3429.       3429.       3429.    
        3428.       3428.       3428.       3428.       3428.       3428.       3428.       3428.       3428.       3430.    
        3430.       3430.       3432.       3432.       3432.       3432.       3432.       3432.       3432.       3432.    
        3432.       3432.       3432.       3432.       3431.       3431.       3431.       3431.       3431.       3431.    
        3432.       3432.       3432.       3433.       3433.       3433.       3432.       3432.       3432.       3433.    
        3433.       3433.       3433.       3434.       3434.       3434.       3437.       3437.       3437.       3438.    
        3438.       3438.       3439.       3439.       3439.       3440.       3440.       3440.       3442.       3442.    
        3442.       3441.       3441.       3441.       3440.       3440.       3440.       3442.       3442.       3442.    
        3442.       3442.       3442.       3442.       3442.       3442.       3442.       3442.       3443.       3443.    
        3445.       3445.       3446.       3448.       3450.       3449.       3449.       3448.       3448.       3448.    
        3449.       3451.       3451.       3451.       3452.       3452.    
  55    3436.       3432.       3430.       3427.       3427.       3424.       3422.       3419.       3416.       3416.    
        3415.       3416.       3414.       3416.       3416.       3416.       3417.       3417.       3417.       3416.    
        3416.       3416.       3416.       3418.       3418.       3418.       3419.       3419.       3419.       3419.    
        3419.       3419.       3420.       3420.       3420.       3421.       3421.       3421.       3420.       3420.    
        3420.       3419.       3419.       3419.       3421.       3421.       3421.       3422.       3422.       3422.    
        3423.       3423.       3423.       3424.       3424.       3424.       3424.       3424.       3424.       3425.    
        3425.       3425.       3425.       3425.       3425.       3425.       3425.       3425.       3427.       3427.    
        3427.       3427.       3427.       3427.       3427.       3428.       3428.       3428.       3428.       3428.    
        3428.       3429.       3429.       3429.       3429.       3429.       3429.       3429.       3429.       3429.    
        3428.       3428.       3428.       3428.       3428.       3428.       3428.       3428.       3428.       3430.    
        3430.       3430.       3432.       3432.       3432.       3432.       3432.       3432.       3432.       3432.    
        3432.       3432.       3432.       3432.       3431.       3431.       3431.       3431.       3431.       3431.    
        3432.       3432.       3432.       3433.       3433.       3433.       3432.       3432.       3432.       3432.    
        3433.       3433.       3433.       3434.       3434.       3434.       3437.       3437.       3437.       3438.    
        3438.       3438.       3439.       3439.       3439.       3440.       3440.       3440.       3442.       3442.    
        3442.       3441.       3441.       3441.       3440.       3440.       3440.       3442.       3442.       3442.    
        3442.       3442.       3442.       3442.       3442.       3442.       3442.       3442.       3443.       3443.    
        3445.       3445.       3446.       3448.       3450.       3449.       3449.       3448.       3448.       3448.    
        3449.       3451.       3451.       3451.       3452.       3452.    
  56    3436.       3433.       3431.       3428.       3428.       3427.       3426.       3424.       3421.       3421.    
        3418.       3416.       3414.       3416.       3418.       3418.       3417.       3417.       3417.       3417.    
        3417.       3417.       3417.       3417.       3417.       3417.       3417.       3417.       3417.       3419.    
        3419.       3419.       3421.       3421.       3421.       3421.       3421.       3421.       3420.       3420.    
        3420.       3420.       3420.       3420.       3421.       3421.       3421.       3422.       3422.       3422.    
        3422.       3422.       3422.       3422.       3422.       3422.       3424.       3424.       3424.       3425.    
        3425.       3425.       3425.       3425.       3425.       3425.       3425.       3425.       3425.       3425.    
        3425.       3425.       3425.       3425.       3425.       3426.       3426.       3426.       3427.       3427.    
        3427.       3428.       3428.       3428.       3430.       3430.       3430.       3430.       3430.       3430.    
        3431.       3431.       3431.       3430.       3430.       3430.       3429.       3429.       3429.       3429.    
        3429.       3429.       3431.       3431.       3431.       3433.       3433.       3433.       3433.       3433.    
        3433.       3431.       3431.       3431.       3431.       3431.       3431.       3431.       3431.       3431.    
        3433.       3433.       3433.       3434.       3434.       3434.       3435.       3435.       3435.       3436.    
        3436.       3436.       3436.       3437.       3437.       3437.       3439.       3439.       3439.       3439.    
        3439.       3439.       3439.       3439.       3439.       3439.       3439.       3439.       3440.       3440.    
        3440.       3442.       3442.       3442.       3443.       3443.       3443.       3443.       3443.       3443.    
        3442.       3442.       3442.       3442.       3442.       3442.       3442.       3441.       3442.       3446.    
        3448.       3448.       3449.       3450.       3452.       3452.       3452.       3450.       3450.       3450.    
        3450.       3451.       3451.       3452.       3453.       3455.    
  57    3436.       3433.       3431.       3428.       3428.       3427.       3426.       3424.       3421.       3421.    
        3418.       3416.       3414.       3416.       3418.       3418.       3417.       3417.       3417.       3417.    
        3417.       3417.       3417.       3417.       3417.       3417.       3417.       3417.       3417.       3419.    
        3419.       3419.       3421.       3421.       3421.       3421.       3421.       3421.       3420.       3420.    
        3420.       3420.       3420.       3420.       3421.       3421.       3421.       3422.       3422.       3422.    
        3422.       3422.       3422.       3422.       3422.       3422.       3424.       3424.       3424.       3425.    
        3425.       3425.       3425.       3425.       3425.       3425.       3425.       3425.       3425.       3425.    
        3425.       3425.       3425.       3425.       3425.       3426.       3426.       3426.       3427.       3427.    
        3427.       3428.       3428.       3428.       3430.       3430.       3430.       3430.       3430.       3430.    
        3431.       3431.       3431.       3430.       3430.       3430.       3429.       3429.       3429.       3429.    
        3429.       3429.       3431.       3431.       3431.       3433.       3433.       3433.       3433.       3433.    
        3433.       3431.       3431.       3431.       3431.       3431.       3431.       3431.       3431.       3431.    
        3433.       3433.       3433.       3434.       3434.       3434.       3435.       3435.       3435.       3436.    
        3436.       3436.       3436.       3437.       3437.       3437.       3439.       3439.       3439.       3439.    
        3439.       3439.       3439.       3439.       3439.       3439.       3439.       3439.       3440.       3440.    
        3440.       3442.       3442.       3442.       3443.       3443.       3443.       3443.       3443.       3443.    
        3442.       3442.       3442.       3442.       3442.       3442.       3442.       3441.       3442.       3446.    
        3448.       3448.       3449.       3450.       3452.       3452.       3452.       3450.       3450.       3450.    
        3450.       3451.       3451.       3452.       3453.       3455.    
  58    3436.       3433.       3431.       3428.       3428.       3427.       3426.       3424.       3421.       3421.    
        3418.       3416.       3414.       3416.       3418.       3418.       3417.       3417.       3417.       3417.    
        3417.       3417.       3417.       3417.       3417.       3417.       3417.       3417.       3417.       3419.    
        3419.       3419.       3421.       3421.       3421.       3421.       3421.       3421.       3420.       3420.    
        3420.       3420.       3420.       3420.       3421.       3421.       3421.       3422.       3422.       3422.    
        3422.       3422.       3422.       3422.       3422.       3422.       3424.       3424.       3424.       3425.    
        3425.       3425.       3425.       3425.       3425.       3425.       3425.       3425.       3425.       3425.    
        3425.       3425.       3425.       3425.       3425.       3426.       3426.       3426.       3427.       3427.    
        3427.       3428.       3428.       3428.       3430.       3430.       3430.       3430.       3430.       3430.    
        3431.       3431.       3431.       3430.       3430.       3430.       3429.       3429.       3429.       3429.    
        3429.       3429.       3431.       3431.       3431.       3433.       3433.       3433.       3433.       3433.    
        3433.       3431.       3431.       3431.       3431.       3431.       3431.       3431.       3431.       3431.    
        3433.       3433.       3433.       3434.       3434.       3434.       3435.       3435.       3435.       3436.    
        3436.       3436.       3436.       3437.       3437.       3437.       3439.       3439.       3439.       3439.    
        3439.       3439.       3439.       3439.       3439.       3439.       3439.       3439.       3440.       3440.    
        3440.       3442.       3442.       3442.       3443.       3443.       3443.       3443.       3443.       3443.    
        3442.       3442.       3442.       3442.       3442.       3442.       3442.       3441.       3442.       3446.    
        3448.       3448.       3449.       3450.       3452.       3452.       3452.       3450.       3450.       3450.    
        3450.       3451.       3451.       3452.       3453.       3455.    
  59    3437.       3433.       3431.       3432.       3432.       3431.       3430.       3427.       3424.       3424.    
        3422.       3420.       3416.       3416.       3420.       3420.       3419.       3419.       3419.       3419.    
        3419.       3419.       3419.       3419.       3419.       3419.       3418.       3418.       3418.       3418.    
        3418.       3418.       3419.       3419.       3419.       3419.       3419.       3419.       3419.       3419.    
        3419.       3419.       3419.       3419.       3419.       3419.       3419.       3421.       3421.       3421.    
        3421.       3421.       3421.       3421.       3421.       3421.       3422.       3422.       3422.       3424.    
        3424.       3424.       3424.       3424.       3424.       3425.       3425.       3425.       3426.       3426.    
        3426.       3427.       3427.       3427.       3427.       3426.       3426.       3426.       3426.       3426.    
        3426.       3427.       3427.       3427.       3429.       3429.       3429.       3430.       3430.       3430.    
        3431.       3431.       3431.       3433.       3433.       3433.       3432.       3432.       3432.       3431.    
        3431.       3431.       3432.       3432.       3432.       3433.       3433.       3433.       3433.       3433.    
        3433.       3431.       3431.       3431.       3432.       3432.       3432.       3433.       3433.       3433.    
        3434.       3434.       3434.       3436.       3436.       3436.       3437.       3437.       3437.       3439.    
        3439.       3439.       3439.       3441.       3441.       3441.       3442.       3442.       3442.       3442.    
        3442.       3442.       3442.       3442.       3442.       3442.       3442.       3442.       3442.       3442.    
        3442.       3442.       3442.       3442.       3443.       3443.       3443.       3442.       3442.       3442.    
        3443.       3443.       3443.       3442.       3442.       3443.       3443.       3444.       3445.       3449.    
        3450.       3450.       3450.       3451.       3452.       3452.       3452.       3451.       3450.       3451.    
        3452.       3453.       3453.       3455.       3458.       3461.    
  60    3437.       3433.       3431.       3432.       3432.       3431.       3430.       3427.       3424.       3424.    
        3422.       3420.       3416.       3416.       3420.       3420.       3419.       3419.       3419.       3419.    
        3419.       3419.       3419.       3419.       3419.       3419.       3418.       3418.       3418.       3418.    
        3418.       3418.       3419.       3419.       3419.       3419.       3419.       3419.       3419.       3419.    
        3419.       3419.       3419.       3419.       3419.       3419.       3419.       3421.       3421.       3421.    
        3421.       3421.       3421.       3421.       3421.       3421.       3422.       3422.       3422.       3424.    
        3424.       3424.       3424.       3424.       3424.       3425.       3425.       3425.       3426.       3426.    
        3426.       3427.       3427.       3427.       3427.       3426.       3426.       3426.       3426.       3426.    
        3426.       3427.       3427.       3427.       3429.       3429.       3429.       3430.       3430.       3430.    
        3431.       3431.       3431.       3433.       3433.       3433.       3432.       3432.       3432.       3431.    
        3431.       3431.       3432.       3432.       3432.       3433.       3433.       3433.       3433.       3433.    
        3433.       3431.       3431.       3431.       3432.       3432.       3432.       3433.       3433.       3433.    
        3434.       3434.       3434.       3436.       3436.       3436.       3437.       3437.       3437.       3439.    
        3439.       3439.       3439.       3441.       3441.       3441.       3442.       3442.       3442.       3442.    
        3442.       3442.       3442.       3442.       3442.       3442.       3442.       3442.       3442.       3442.    
        3442.       3442.       3442.       3442.       3443.       3443.       3443.       3442.       3442.       3442.    
        3443.       3443.       3443.       3442.       3442.       3443.       3443.       3444.       3445.       3449.    
        3450.       3450.       3450.       3451.       3452.       3452.       3452.       3451.       3450.       3451.    
        3452.       3453.       3453.       3455.       3458.       3461.    
  61    3437.       3433.       3431.       3432.       3432.       3431.       3430.       3427.       3424.       3424.    
        3422.       3420.       3416.       3416.       3420.       3420.       3419.       3419.       3419.       3419.    
        3419.       3419.       3419.       3419.       3419.       3419.       3418.       3418.       3418.       3418.    
        3418.       3418.       3419.       3419.       3419.       3419.       3419.       3419.       3419.       3419.    
        3419.       3419.       3419.       3419.       3419.       3419.       3419.       3421.       3421.       3421.    
        3421.       3421.       3421.       3421.       3421.       3421.       3422.       3422.       3422.       3424.    
        3424.       3424.       3424.       3424.       3424.       3425.       3425.       3425.       3426.       3426.    
        3426.       3427.       3427.       3427.       3427.       3426.       3426.       3426.       3426.       3426.    
        3426.       3427.       3427.       3427.       3429.       3429.       3429.       3430.       3430.       3430.    
        3431.       3431.       3431.       3433.       3433.       3433.       3432.       3432.       3432.       3431.    
        3431.       3431.       3432.       3432.       3432.       3433.       3433.       3433.       3433.       3433.    
        3433.       3431.       3431.       3431.       3432.       3432.       3432.       3433.       3433.       3433.    
        3434.       3434.       3434.       3436.       3436.       3436.       3437.       3437.       3437.       3439.    
        3439.       3439.       3439.       3441.       3441.       3441.       3442.       3442.       3442.       3442.    
        3442.       3442.       3442.       3442.       3442.       3442.       3442.       3442.       3442.       3442.    
        3442.       3442.       3442.       3442.       3443.       3443.       3443.       3442.       3442.       3442.    
        3443.       3443.       3443.       3442.       3442.       3443.       3443.       3444.       3445.       3449.    
        3450.       3450.       3450.       3451.       3452.       3452.       3452.       3451.       3450.       3451.    
        3452.       3453.       3453.       3455.       3458.       3461.    
  62    3440.       3437.       3434.       3433.       3433.       3434.       3432.       3429.       3425.       3425.    
        3423.       3419.       3418.       3416.       3420.       3420.       3421.       3421.       3421.       3419.    
        3419.       3419.       3419.       3420.       3420.       3420.       3419.       3419.       3419.       3419.    
        3419.       3419.       3420.       3420.       3420.       3420.       3420.       3420.       3420.       3420.    
        3420.       3422.       3422.       3422.       3423.       3423.       3423.       3423.       3423.       3423.    
        3422.       3422.       3422.       3423.       3423.       3423.       3422.       3422.       3422.       3423.    
        3423.       3423.       3423.       3423.       3423.       3424.       3424.       3424.       3425.       3425.    
        3425.       3427.       3427.       3427.       3427.       3428.       3428.       3428.       3428.       3428.    
        3428.       3428.       3428.       3428.       3428.       3428.       3428.       3430.       3430.       3430.    
        3431.       3431.       3431.       3431.       3431.       3431.       3432.       3432.       3432.       3433.    
        3433.       3433.       3433.       3433.       3433.       3433.       3433.       3433.       3433.       3433.    
        3433.       3432.       3432.       3432.       3432.       3432.       3432.       3433.       3433.       3433.    
        3434.       3434.       3434.       3435.       3435.       3435.       3437.       3437.       3437.       3440.    
        3440.       3440.       3440.       3443.       3443.       3443.       3443.       3443.       3443.       3444.    
        3444.       3444.       3443.       3443.       3443.       3442.       3442.       3442.       3442.       3442.    
        3442.       3442.       3442.       3442.       3442.       3442.       3442.       3442.       3442.       3442.    
        3443.       3443.       3443.       3443.       3443.       3445.       3445.       3446.       3448.       3450.    
        3451.       3451.       3451.       3451.       3453.       3455.       3455.       3454.       3454.       3455.    
        3456.       3457.       3457.       3458.       3461.       3463.    
  63    3440.       3437.       3434.       3433.       3433.       3434.       3432.       3429.       3425.       3425.    
        3423.       3419.       3418.       3416.       3420.       3420.       3421.       3421.       3421.       3419.    
        3419.       3419.       3419.       3420.       3420.       3420.       3419.       3419.       3419.       3419.    
        3419.       3419.       3420.       3420.       3420.       3420.       3420.       3420.       3420.       3420.    
        3420.       3422.       3422.       3422.       3423.       3423.       3423.       3423.       3423.       3423.    
        3422.       3422.       3422.       3423.       3423.       3423.       3422.       3422.       3422.       3423.    
        3423.       3423.       3423.       3423.       3423.       3424.       3424.       3424.       3425.       3425.    
        3425.       3427.       3427.       3427.       3427.       3428.       3428.       3428.       3428.       3428.    
        3428.       3428.       3428.       3428.       3428.       3428.       3428.       3430.       3430.       3430.    
        3431.       3431.       3431.       3431.       3431.       3431.       3432.       3432.       3432.       3433.    
        3433.       3433.       3433.       3433.       3433.       3433.       3433.       3433.       3433.       3433.    
        3433.       3432.       3432.       3432.       3432.       3432.       3432.       3433.       3433.       3433.    
        3434.       3434.       3434.       3435.       3435.       3435.       3437.       3437.       3437.       3440.    
        3440.       3440.       3440.       3443.       3443.       3443.       3443.       3443.       3443.       3444.    
        3444.       3444.       3443.       3443.       3443.       3442.       3442.       3442.       3442.       3442.    
        3442.       3442.       3442.       3442.       3442.       3442.       3442.       3442.       3442.       3442.    
        3443.       3443.       3443.       3443.       3443.       3445.       3445.       3446.       3448.       3450.    
        3451.       3451.       3451.       3451.       3453.       3455.       3455.       3454.       3454.       3455.    
        3456.       3457.       3457.       3458.       3461.       3463.    
  64    3440.       3437.       3434.       3433.       3433.       3434.       3432.       3429.       3425.       3425.    
        3423.       3419.       3418.       3416.       3420.       3420.       3421.       3421.       3421.       3419.    
        3419.       3419.       3419.       3420.       3420.       3420.       3419.       3419.       3419.       3419.    
        3419.       3419.       3420.       3420.       3420.       3420.       3420.       3420.       3420.       3420.    
        3420.       3422.       3422.       3422.       3423.       3423.       3423.       3423.       3423.       3423.    
        3422.       3422.       3422.       3423.       3423.       3423.       3422.       3422.       3422.       3423.    
        3423.       3423.       3423.       3423.       3423.       3424.       3424.       3424.       3425.       3425.    
        3425.       3427.       3427.       3427.       3427.       3428.       3428.       3428.       3428.       3428.    
        3428.       3428.       3428.       3428.       3428.       3428.       3428.       3430.       3430.       3430.    
        3431.       3431.       3431.       3431.       3431.       3431.       3432.       3432.       3432.       3433.    
        3433.       3433.       3433.       3433.       3433.       3433.       3433.       3433.       3433.       3433.    
        3433.       3432.       3432.       3432.       3432.       3432.       3432.       3433.       3433.       3433.    
        3434.       3434.       3434.       3435.       3435.       3435.       3437.       3437.       3437.       3440.    
        3440.       3440.       3440.       3443.       3443.       3443.       3443.       3443.       3443.       3444.    
        3444.       3444.       3443.       3443.       3443.       3442.       3442.       3442.       3442.       3442.    
        3442.       3442.       3442.       3442.       3442.       3442.       3442.       3442.       3442.       3442.    
        3443.       3443.       3443.       3443.       3443.       3445.       3445.       3446.       3448.       3450.    
        3451.       3451.       3451.       3451.       3453.       3455.       3455.       3454.       3454.       3455.    
        3456.       3457.       3457.       3458.       3461.       3463.    
  65    3442.       3440.       3439.       3437.       3437.       3436.       3434.       3430.       3427.       3427.    
        3424.       3418.       3416.       3416.       3419.       3419.       3420.       3420.       3420.       3420.    
        3420.       3420.       3420.       3417.       3417.       3417.       3417.       3417.       3417.       3419.    
        3419.       3419.       3420.       3420.       3420.       3421.       3421.       3421.       3422.       3422.    
        3422.       3425.       3425.       3425.       3426.       3426.       3426.       3425.       3425.       3425.    
        3424.       3424.       3424.       3424.       3424.       3424.       3424.       3424.       3424.       3425.    
        3425.       3425.       3427.       3427.       3427.       3428.       3428.       3428.       3429.       3429.    
        3429.       3429.       3429.       3429.       3429.       3428.       3428.       3428.       3428.       3428.    
        3428.       3427.       3427.       3427.       3428.       3428.       3428.       3430.       3430.       3430.    
        3431.       3431.       3431.       3433.       3433.       3433.       3434.       3434.       3434.       3434.    
        3434.       3434.       3433.       3433.       3433.       3433.       3433.       3433.       3433.       3433.    
        3433.       3433.       3433.       3433.       3433.       3433.       3433.       3434.       3434.       3434.    
        3434.       3434.       3434.       3434.       3434.       3434.       3436.       3436.       3436.       3438.    
        3438.       3438.       3438.       3440.       3440.       3440.       3441.       3441.       3441.       3442.    
        3442.       3442.       3442.       3442.       3442.       3442.       3442.       3442.       3442.       3442.    
        3442.       3443.       3443.       3443.       3443.       3443.       3443.       3444.       3444.       3444.    
        3444.       3444.       3444.       3444.       3444.       3445.       3445.       3448.       3450.       3453.    
        3454.       3454.       3454.       3453.       3456.       3460.       3460.       3460.       3460.       3460.    
        3460.       3459.       3459.       3460.       3461.       3462.    
  66    3442.       3440.       3439.       3437.       3437.       3436.       3434.       3430.       3427.       3427.    
        3424.       3418.       3416.       3416.       3419.       3419.       3420.       3420.       3420.       3420.    
        3420.       3420.       3420.       3417.       3417.       3417.       3417.       3417.       3417.       3419.    
        3419.       3419.       3420.       3420.       3420.       3421.       3421.       3421.       3422.       3422.    
        3422.       3425.       3425.       3425.       3426.       3426.       3426.       3425.       3425.       3425.    
        3424.       3424.       3424.       3424.       3424.       3424.       3424.       3424.       3424.       3425.    
        3425.       3425.       3427.       3427.       3427.       3428.       3428.       3428.       3429.       3429.    
        3429.       3429.       3429.       3429.       3429.       3428.       3428.       3428.       3428.       3428.    
        3428.       3427.       3427.       3427.       3428.       3428.       3428.       3430.       3430.       3430.    
        3431.       3431.       3431.       3433.       3433.       3433.       3434.       3434.       3434.       3434.    
        3434.       3434.       3433.       3433.       3433.       3433.       3433.       3433.       3433.       3433.    
        3433.       3433.       3433.       3433.       3433.       3433.       3433.       3434.       3434.       3434.    
        3434.       3434.       3434.       3434.       3434.       3434.       3436.       3436.       3436.       3438.    
        3438.       3438.       3438.       3440.       3440.       3440.       3441.       3441.       3441.       3442.    
        3442.       3442.       3442.       3442.       3442.       3442.       3442.       3442.       3442.       3442.    
        3442.       3443.       3443.       3443.       3443.       3443.       3443.       3444.       3444.       3444.    
        3444.       3444.       3444.       3444.       3444.       3445.       3445.       3448.       3450.       3453.    
        3454.       3454.       3454.       3453.       3456.       3460.       3460.       3460.       3460.       3460.    
        3460.       3459.       3459.       3460.       3461.       3462.    
  67    3442.       3440.       3439.       3437.       3437.       3436.       3434.       3430.       3427.       3427.    
        3424.       3418.       3416.       3416.       3419.       3419.       3420.       3420.       3420.       3420.    
        3420.       3420.       3420.       3417.       3417.       3417.       3417.       3417.       3417.       3419.    
        3419.       3419.       3420.       3420.       3420.       3421.       3421.       3421.       3422.       3422.    
        3422.       3425.       3425.       3425.       3426.       3426.       3426.       3425.       3425.       3425.    
        3424.       3424.       3424.       3424.       3424.       3424.       3424.       3424.       3424.       3425.    
        3425.       3425.       3427.       3427.       3427.       3428.       3428.       3428.       3429.       3429.    
        3429.       3429.       3429.       3429.       3429.       3428.       3428.       3428.       3428.       3428.    
        3428.       3427.       3427.       3427.       3428.       3428.       3428.       3430.       3430.       3430.    
        3431.       3431.       3431.       3433.       3433.       3433.       3434.       3434.       3434.       3434.    
        3434.       3434.       3433.       3433.       3433.       3433.       3433.       3433.       3433.       3433.    
        3433.       3433.       3433.       3433.       3433.       3433.       3433.       3434.       3434.       3434.    
        3434.       3434.       3434.       3434.       3434.       3434.       3436.       3436.       3436.       3438.    
        3438.       3438.       3438.       3440.       3440.       3440.       3441.       3441.       3441.       3442.    
        3442.       3442.       3442.       3442.       3442.       3442.       3442.       3442.       3442.       3442.    
        3442.       3443.       3443.       3443.       3443.       3443.       3443.       3444.       3444.       3444.    
        3444.       3444.       3444.       3444.       3444.       3445.       3445.       3448.       3450.       3453.    
        3454.       3454.       3454.       3453.       3456.       3460.       3460.       3460.       3460.       3460.    
        3460.       3459.       3459.       3460.       3461.       3462.    
  68    3442.       3442.       3440.       3438.       3438.       3437.       3436.       3432.       3428.       3428.    
        3424.       3419.       3416.       3417.       3418.       3418.       3420.       3420.       3420.       3419.    
        3419.       3419.       3419.       3417.       3417.       3417.       3418.       3418.       3418.       3421.    
        3421.       3421.       3422.       3422.       3422.       3422.       3422.       3422.       3424.       3424.    
        3424.       3425.       3425.       3425.       3427.       3427.       3427.       3426.       3426.       3426.    
        3425.       3425.       3425.       3423.       3423.       3423.       3422.       3422.       3422.       3422.    
        3422.       3422.       3424.       3424.       3424.       3426.       3426.       3426.       3428.       3428.    
        3428.       3430.       3430.       3430.       3430.       3431.       3431.       3431.       3430.       3430.    
        3430.       3430.       3430.       3430.       3430.       3430.       3430.       3430.       3430.       3430.    
        3431.       3431.       3431.       3433.       3433.       3433.       3434.       3434.       3434.       3434.    
        3434.       3434.       3434.       3434.       3434.       3434.       3434.       3434.       3434.       3434.    
        3434.       3434.       3434.       3434.       3435.       3435.       3435.       3436.       3436.       3436.    
        3437.       3437.       3437.       3437.       3437.       3437.       3437.       3437.       3437.       3437.    
        3437.       3437.       3437.       3437.       3437.       3437.       3439.       3439.       3439.       3440.    
        3440.       3440.       3440.       3440.       3440.       3440.       3440.       3440.       3442.       3442.    
        3442.       3442.       3442.       3442.       3443.       3443.       3443.       3444.       3444.       3444.    
        3445.       3445.       3445.       3446.       3446.       3446.       3446.       3448.       3455.       3456.    
        3457.       3457.       3457.       3457.       3457.       3458.       3458.       3461.       3461.       3460.    
        3459.       3458.       3458.       3458.       3461.       3463.    
  69    3442.       3442.       3440.       3438.       3438.       3437.       3436.       3432.       3428.       3428.    
        3424.       3419.       3416.       3417.       3418.       3418.       3420.       3420.       3420.       3419.    
        3419.       3419.       3419.       3417.       3417.       3417.       3418.       3418.       3418.       3421.    
        3421.       3421.       3422.       3422.       3422.       3422.       3422.       3422.       3424.       3424.    
        3424.       3425.       3425.       3425.       3427.       3427.       3427.       3426.       3426.       3426.    
        3425.       3425.       3425.       3423.       3423.       3423.       3422.       3422.       3422.       3422.    
        3422.       3422.       3424.       3424.       3424.       3426.       3426.       3426.       3428.       3428.    
        3428.       3430.       3430.       3430.       3430.       3431.       3431.       3431.       3430.       3430.    
        3430.       3430.       3430.       3430.       3430.       3430.       3430.       3430.       3430.       3430.    
        3431.       3431.       3431.       3433.       3433.       3433.       3434.       3434.       3434.       3434.    
        3434.       3434.       3434.       3434.       3434.       3434.       3434.       3434.       3434.       3434.    
        3434.       3434.       3434.       3434.       3435.       3435.       3435.       3436.       3436.       3436.    
        3437.       3437.       3437.       3437.       3437.       3437.       3437.       3437.       3437.       3437.    
        3437.       3437.       3437.       3437.       3437.       3437.       3439.       3439.       3439.       3440.    
        3440.       3440.       3440.       3440.       3440.       3440.       3440.       3440.       3442.       3442.    
        3442.       3442.       3442.       3442.       3443.       3443.       3443.       3444.       3444.       3444.    
        3445.       3445.       3445.       3446.       3446.       3446.       3446.       3448.       3455.       3456.    
        3457.       3457.       3457.       3457.       3457.       3458.       3458.       3461.       3461.       3460.    
        3459.       3458.       3458.       3458.       3461.       3463.    
  70    3442.       3442.       3440.       3438.       3438.       3437.       3436.       3432.       3428.       3428.    
        3424.       3419.       3416.       3417.       3418.       3418.       3420.       3420.       3420.       3419.    
        3419.       3419.       3419.       3417.       3417.       3417.       3418.       3418.       3418.       3421.    
        3421.       3421.       3422.       3422.       3422.       3422.       3422.       3422.       3424.       3424.    
        3424.       3425.       3425.       3425.       3427.       3427.       3427.       3426.       3426.       3426.    
        3425.       3425.       3425.       3423.       3423.       3423.       3422.       3422.       3422.       3422.    
        3422.       3422.       3424.       3424.       3424.       3426.       3426.       3426.       3428.       3428.    
        3428.       3430.       3430.       3430.       3430.       3431.       3431.       3431.       3430.       3430.    
        3430.       3430.       3430.       3430.       3430.       3430.       3430.       3430.       3430.       3430.    
        3431.       3431.       3431.       3433.       3433.       3433.       3434.       3434.       3434.       3434.    
        3434.       3434.       3434.       3434.       3434.       3434.       3434.       3434.       3434.       3434.    
        3434.       3434.       3434.       3434.       3435.       3435.       3435.       3436.       3436.       3436.    
        3437.       3437.       3437.       3437.       3437.       3437.       3437.       3437.       3437.       3437.    
        3437.       3437.       3437.       3437.       3437.       3437.       3439.       3439.       3439.       3440.    
        3440.       3440.       3440.       3440.       3440.       3440.       3440.       3440.       3442.       3442.    
        3442.       3442.       3442.       3442.       3443.       3443.       3443.       3444.       3444.       3444.    
        3445.       3445.       3445.       3446.       3446.       3446.       3446.       3448.       3455.       3456.    
        3457.       3457.       3457.       3457.       3457.       3458.       3458.       3461.       3461.       3460.    
        3459.       3458.       3458.       3458.       3461.       3463.    
  71    3442.       3442.       3442.       3439.       3439.       3439.       3436.       3434.       3431.       3431.    
        3427.       3421.       3419.       3420.       3420.       3420.       3421.       3421.       3421.       3419.    
        3419.       3419.       3419.       3418.       3418.       3418.       3419.       3419.       3419.       3422.    
        3422.       3422.       3422.       3422.       3422.       3422.       3422.       3422.       3424.       3424.    
        3424.       3424.       3424.       3424.       3424.       3424.       3424.       3425.       3425.       3425.    
        3424.       3424.       3424.       3422.       3422.       3422.       3423.       3423.       3423.       3425.    
        3425.       3425.       3427.       3427.       3427.       3431.       3431.       3431.       3433.       3433.    
        3433.       3433.       3433.       3433.       3433.       3434.       3434.       3434.       3435.       3435.    
        3435.       3436.       3436.       3436.       3436.       3436.       3436.       3436.       3436.       3436.    
        3436.       3436.       3436.       3436.       3436.       3436.       3436.       3436.       3436.       3436.    
        3436.       3436.       3436.       3436.       3436.       3437.       3437.       3437.       3438.       3438.    
        3438.       3439.       3439.       3439.       3439.       3439.       3439.       3439.       3439.       3439.    
        3440.       3440.       3440.       3440.       3440.       3440.       3441.       3441.       3441.       3440.    
        3440.       3440.       3440.       3440.       3440.       3440.       3440.       3440.       3440.       3442.    
        3442.       3442.       3445.       3445.       3445.       3445.       3445.       3445.       3446.       3446.    
        3446.       3446.       3446.       3446.       3446.       3446.       3446.       3447.       3447.       3447.    
        3448.       3448.       3448.       3451.       3451.       3453.       3453.       3454.       3455.       3458.    
        3458.       3458.       3458.       3458.       3458.       3459.       3459.       3462.       3463.       3464.    
        3462.       3461.       3461.       3463.       3467.       3469.    
  72    3442.       3442.       3442.       3439.       3439.       3439.       3436.       3434.       3431.       3431.    
        3427.       3421.       3419.       3420.       3420.       3420.       3421.       3421.       3421.       3419.    
        3419.       3419.       3419.       3418.       3418.       3418.       3419.       3419.       3419.       3422.    
        3422.       3422.       3422.       3422.       3422.       3422.       3422.       3422.       3424.       3424.    
        3424.       3424.       3424.       3424.       3424.       3424.       3424.       3425.       3425.       3425.    
        3424.       3424.       3424.       3422.       3422.       3422.       3423.       3423.       3423.       3425.    
        3425.       3425.       3427.       3427.       3427.       3431.       3431.       3431.       3433.       3433.    
        3433.       3433.       3433.       3433.       3433.       3434.       3434.       3434.       3435.       3435.    
        3435.       3436.       3436.       3436.       3436.       3436.       3436.       3436.       3436.       3436.    
        3436.       3436.       3436.       3436.       3436.       3436.       3436.       3436.       3436.       3436.    
        3436.       3436.       3436.       3436.       3436.       3437.       3437.       3437.       3438.       3438.    
        3438.       3439.       3439.       3439.       3439.       3439.       3439.       3439.       3439.       3439.    
        3440.       3440.       3440.       3440.       3440.       3440.       3441.       3441.       3441.       3440.    
        3440.       3440.       3440.       3440.       3440.       3440.       3440.       3440.       3440.       3442.    
        3442.       3442.       3445.       3445.       3445.       3445.       3445.       3445.       3446.       3446.    
        3446.       3446.       3446.       3446.       3446.       3446.       3446.       3447.       3447.       3447.    
        3448.       3448.       3448.       3451.       3451.       3453.       3453.       3454.       3455.       3458.    
        3458.       3458.       3458.       3458.       3458.       3459.       3459.       3462.       3463.       3464.    
        3462.       3461.       3461.       3463.       3467.       3469.    
  73    3442.       3442.       3442.       3439.       3439.       3439.       3436.       3434.       3431.       3431.    
        3427.       3421.       3419.       3420.       3420.       3420.       3421.       3421.       3421.       3419.    
        3419.       3419.       3419.       3418.       3418.       3418.       3419.       3419.       3419.       3422.    
        3422.       3422.       3422.       3422.       3422.       3422.       3422.       3422.       3424.       3424.    
        3424.       3424.       3424.       3424.       3424.       3424.       3424.       3425.       3425.       3425.    
        3424.       3424.       3424.       3422.       3422.       3422.       3423.       3423.       3423.       3425.    
        3425.       3425.       3427.       3427.       3427.       3431.       3431.       3431.       3433.       3433.    
        3433.       3433.       3433.       3433.       3433.       3434.       3434.       3434.       3435.       3435.    
        3435.       3436.       3436.       3436.       3436.       3436.       3436.       3436.       3436.       3436.    
        3436.       3436.       3436.       3436.       3436.       3436.       3436.       3436.       3436.       3436.    
        3436.       3436.       3436.       3436.       3436.       3437.       3437.       3437.       3438.       3438.    
        3438.       3439.       3439.       3439.       3439.       3439.       3439.       3439.       3439.       3439.    
        3440.       3440.       3440.       3440.       3440.       3440.       3441.       3441.       3441.       3440.    
        3440.       3440.       3440.       3440.       3440.       3440.       3440.       3440.       3440.       3442.    
        3442.       3442.       3445.       3445.       3445.       3445.       3445.       3445.       3446.       3446.    
        3446.       3446.       3446.       3446.       3446.       3446.       3446.       3447.       3447.       3447.    
        3448.       3448.       3448.       3451.       3451.       3453.       3453.       3454.       3455.       3458.    
        3458.       3458.       3458.       3458.       3458.       3459.       3459.       3462.       3463.       3464.    
        3462.       3461.       3461.       3463.       3467.       3469.    
  74    3446.       3443.       3443.       3441.       3441.       3440.       3439.       3436.       3433.       3433.    
        3431.       3425.       3422.       3422.       3422.       3422.       3419.       3419.       3419.       3421.    
        3421.       3421.       3421.       3420.       3420.       3420.       3419.       3419.       3419.       3422.    
        3422.       3422.       3424.       3424.       3424.       3424.       3424.       3424.       3424.       3424.    
        3424.       3424.       3424.       3424.       3424.       3424.       3424.       3424.       3424.       3424.    
        3425.       3425.       3425.       3424.       3424.       3424.       3425.       3425.       3425.       3428.    
        3428.       3428.       3431.       3431.       3431.       3435.       3435.       3435.       3437.       3437.    
        3437.       3439.       3439.       3439.       3439.       3440.       3440.       3440.       3441.       3441.    
        3441.       3442.       3442.       3442.       3442.       3442.       3442.       3442.       3442.       3442.    
        3442.       3442.       3442.       3443.       3443.       3443.       3443.       3443.       3443.       3444.    
        3444.       3444.       3443.       3443.       3443.       3445.       3445.       3445.       3444.       3444.    
        3444.       3445.       3445.       3445.       3445.       3445.       3445.       3445.       3445.       3445.    
        3445.       3445.       3445.       3447.       3447.       3447.       3448.       3448.       3448.       3448.    
        3448.       3448.       3448.       3447.       3447.       3447.       3447.       3447.       3447.       3448.    
        3448.       3448.       3451.       3451.       3451.       3452.       3452.       3452.       3452.       3452.    
        3452.       3451.       3451.       3451.       3452.       3452.       3452.       3452.       3452.       3452.    
        3452.       3452.       3452.       3453.       3453.       3455.       3455.       3458.       3457.       3458.    
        3461.       3461.       3461.       3462.       3462.       3462.       3462.       3462.       3463.       3463.    
        3464.       3464.       3464.       3466.       3468.       3469.    
  75    3446.       3443.       3443.       3441.       3441.       3440.       3439.       3436.       3433.       3433.    
        3431.       3425.       3422.       3422.       3422.       3422.       3419.       3419.       3419.       3421.    
        3421.       3421.       3421.       3420.       3420.       3420.       3419.       3419.       3419.       3422.    
        3422.       3422.       3424.       3424.       3424.       3424.       3424.       3424.       3424.       3424.    
        3424.       3424.       3424.       3424.       3424.       3424.       3424.       3424.       3424.       3424.    
        3425.       3425.       3425.       3424.       3424.       3424.       3425.       3425.       3425.       3428.    
        3428.       3428.       3431.       3431.       3431.       3435.       3435.       3435.       3437.       3437.    
        3437.       3439.       3439.       3439.       3439.       3440.       3440.       3440.       3441.       3441.    
        3441.       3442.       3442.       3442.       3442.       3442.       3442.       3442.       3442.       3442.    
        3442.       3442.       3442.       3443.       3443.       3443.       3443.       3443.       3443.       3444.    
        3444.       3444.       3443.       3443.       3443.       3445.       3445.       3445.       3444.       3444.    
        3444.       3445.       3445.       3445.       3445.       3445.       3445.       3445.       3445.       3445.    
        3445.       3445.       3445.       3447.       3447.       3447.       3448.       3448.       3448.       3448.    
        3448.       3448.       3448.       3447.       3447.       3447.       3447.       3447.       3447.       3448.    
        3448.       3448.       3451.       3451.       3451.       3452.       3452.       3452.       3452.       3452.    
        3452.       3451.       3451.       3451.       3452.       3452.       3452.       3452.       3452.       3452.    
        3452.       3452.       3452.       3453.       3453.       3455.       3455.       3458.       3457.       3458.    
        3461.       3461.       3461.       3462.       3462.       3462.       3462.       3462.       3463.       3463.    
        3464.       3464.       3464.       3466.       3468.       3469.    
  76    3448.       3447.       3445.       3443.       3443.       3441.       3440.       3438.       3435.       3435.    
        3432.       3428.       3425.       3423.       3422.       3422.       3417.       3417.       3417.       3420.    
        3420.       3420.       3420.       3420.       3420.       3420.       3421.       3421.       3421.       3421.    
        3421.       3421.       3422.       3422.       3422.       3422.       3422.       3422.       3424.       3424.    
        3424.       3425.       3425.       3425.       3425.       3425.       3425.       3425.       3425.       3425.    
        3425.       3425.       3425.       3427.       3427.       3427.       3428.       3428.       3428.       3432.    
        3432.       3432.       3436.       3436.       3436.       3439.       3439.       3439.       3440.       3440.    
        3440.       3441.       3441.       3441.       3441.       3443.       3443.       3443.       3443.       3443.    
        3443.       3443.       3443.       3443.       3443.       3443.       3443.       3445.       3445.       3445.    
        3446.       3446.       3446.       3446.       3446.       3446.       3446.       3446.       3446.       3447.    
        3447.       3447.       3448.       3448.       3448.       3448.       3448.       3448.       3448.       3448.    
        3448.       3447.       3447.       3447.       3448.       3448.       3448.       3448.       3448.       3448.    
        3449.       3449.       3449.       3450.       3450.       3450.       3451.       3451.       3451.       3451.    
        3451.       3451.       3451.       3451.       3451.       3451.       3451.       3451.       3451.       3451.    
        3451.       3451.       3452.       3452.       3452.       3454.       3454.       3454.       3455.       3455.    
        3455.       3455.       3455.       3455.       3456.       3456.       3456.       3457.       3457.       3457.    
        3456.       3456.       3456.       3455.       3455.       3456.       3456.       3458.       3459.       3460.    
        3461.       3461.       3465.       3466.       3466.       3465.       3465.       3464.       3464.       3464.    
        3465.       3466.       3466.       3467.       3470.       3470.    
  77    3448.       3447.       3445.       3443.       3443.       3441.       3440.       3438.       3435.       3435.    
        3432.       3428.       3425.       3423.       3422.       3422.       3417.       3417.       3417.       3420.    
        3420.       3420.       3420.       3420.       3420.       3420.       3421.       3421.       3421.       3421.    
        3421.       3421.       3422.       3422.       3422.       3422.       3422.       3422.       3424.       3424.    
        3424.       3425.       3425.       3425.       3425.       3425.       3425.       3425.       3425.       3425.    
        3425.       3425.       3425.       3427.       3427.       3427.       3428.       3428.       3428.       3432.    
        3432.       3432.       3436.       3436.       3436.       3439.       3439.       3439.       3440.       3440.    
        3440.       3441.       3441.       3441.       3441.       3443.       3443.       3443.       3443.       3443.    
        3443.       3443.       3443.       3443.       3443.       3443.       3443.       3445.       3445.       3445.    
        3446.       3446.       3446.       3446.       3446.       3446.       3446.       3446.       3446.       3447.    
        3447.       3447.       3448.       3448.       3448.       3448.       3448.       3448.       3448.       3448.    
        3448.       3447.       3447.       3447.       3448.       3448.       3448.       3448.       3448.       3448.    
        3449.       3449.       3449.       3450.       3450.       3450.       3451.       3451.       3451.       3451.    
        3451.       3451.       3451.       3451.       3451.       3451.       3451.       3451.       3451.       3451.    
        3451.       3451.       3452.       3452.       3452.       3454.       3454.       3454.       3455.       3455.    
        3455.       3455.       3455.       3455.       3456.       3456.       3456.       3457.       3457.       3457.    
        3456.       3456.       3456.       3455.       3455.       3456.       3456.       3458.       3459.       3460.    
        3461.       3461.       3465.       3466.       3466.       3465.       3465.       3464.       3464.       3464.    
        3465.       3466.       3466.       3467.       3470.       3470.    
  78    3448.       3446.       3443.       3442.       3442.       3442.       3439.       3437.       3435.       3435.    
        3433.       3430.       3425.       3424.       3425.       3425.       3422.       3422.       3422.       3421.    
        3421.       3421.       3421.       3419.       3419.       3419.       3420.       3420.       3420.       3423.    
        3423.       3423.       3422.       3422.       3422.       3422.       3422.       3422.       3424.       3424.    
        3424.       3427.       3427.       3427.       3427.       3427.       3427.       3427.       3427.       3427.    
        3426.       3426.       3426.       3428.       3428.       3428.       3431.       3431.       3431.       3434.    
        3434.       3434.       3437.       3437.       3437.       3441.       3441.       3441.       3442.       3442.    
        3442.       3442.       3442.       3442.       3442.       3442.       3442.       3442.       3444.       3444.    
        3444.       3444.       3444.       3444.       3445.       3445.       3445.       3446.       3446.       3446.    
        3444.       3444.       3444.       3444.       3444.       3444.       3446.       3446.       3446.       3447.    
        3447.       3447.       3449.       3449.       3449.       3451.       3451.       3451.       3449.       3449.    
        3449.       3448.       3448.       3448.       3448.       3448.       3448.       3449.       3449.       3449.    
        3450.       3450.       3450.       3451.       3451.       3451.       3451.       3451.       3451.       3451.    
        3451.       3451.       3451.       3452.       3452.       3452.       3452.       3452.       3452.       3453.    
        3453.       3453.       3454.       3454.       3454.       3457.       3457.       3457.       3457.       3457.    
        3457.       3457.       3457.       3457.       3458.       3458.       3458.       3458.       3458.       3458.    
        3458.       3458.       3458.       3458.       3458.       3459.       3459.       3461.       3464.       3464.    
        3465.       3465.       3465.       3468.       3467.       3467.       3467.       3466.       3466.       3468.    
        3470.       3472.       3472.       3473.       3473.       3473.    
  79    3448.       3446.       3444.       3444.       3444.       3444.       3442.       3438.       3436.       3436.    
        3434.       3431.       3427.       3425.       3422.       3422.       3419.       3419.       3419.       3418.    
        3418.       3418.       3418.       3420.       3420.       3420.       3420.       3420.       3420.       3419.    
        3419.       3419.       3420.       3420.       3420.       3421.       3421.       3421.       3422.       3422.    
        3422.       3426.       3426.       3426.       3428.       3428.       3428.       3427.       3427.       3427.    
        3426.       3426.       3426.       3430.       3430.       3430.       3434.       3434.       3434.       3436.    
        3436.       3436.       3438.       3438.       3438.       3442.       3442.       3442.       3443.       3443.    
        3443.       3443.       3443.       3443.       3443.       3442.       3442.       3442.       3443.       3443.    
        3443.       3445.       3445.       3445.       3446.       3446.       3446.       3446.       3446.       3446.    
        3445.       3445.       3445.       3446.       3446.       3446.       3449.       3449.       3449.       3451.    
        3451.       3451.       3452.       3452.       3452.       3454.       3454.       3454.       3455.       3455.    
        3455.       3454.       3454.       3454.       3453.       3453.       3453.       3454.       3454.       3454.    
        3454.       3454.       3454.       3453.       3453.       3453.       3453.       3453.       3453.       3454.    
        3454.       3454.       3454.       3455.       3455.       3455.       3455.       3455.       3455.       3456.    
        3456.       3456.       3457.       3457.       3457.       3460.       3460.       3460.       3460.       3460.    
        3460.       3459.       3459.       3459.       3458.       3458.       3458.       3457.       3457.       3457.    
        3457.       3457.       3457.       3458.       3458.       3461.       3461.       3466.       3467.       3467.    
        3467.       3467.       3468.       3469.       3469.       3470.       3470.       3470.       3468.       3470.    
        3470.       3472.       3472.       3473.       3473.       3472.    
  80    3450.       3449.       3446.       3446.       3446.       3445.       3443.       3439.       3436.       3436.    
        3434.       3432.       3429.       3424.       3419.       3419.       3416.       3416.       3416.       3416.    
        3416.       3416.       3416.       3418.       3418.       3418.       3419.       3419.       3419.       3420.    
        3420.       3420.       3422.       3422.       3422.       3422.       3422.       3422.       3422.       3422.    
        3422.       3424.       3424.       3424.       3425.       3425.       3425.       3425.       3425.       3425.    
        3425.       3425.       3425.       3430.       3430.       3430.       3435.       3435.       3435.       3436.    
        3436.       3436.       3438.       3438.       3438.       3440.       3440.       3440.       3442.       3442.    
        3442.       3442.       3442.       3442.       3442.       3443.       3443.       3443.       3444.       3444.    
        3444.       3444.       3444.       3444.       3445.       3445.       3445.       3446.       3446.       3446.    
        3449.       3449.       3449.       3448.       3448.       3448.       3452.       3452.       3452.       3454.    
        3454.       3454.       3455.       3455.       3455.       3456.       3456.       3456.       3458.       3458.    
        3458.       3459.       3459.       3459.       3458.       3458.       3458.       3457.       3457.       3457.    
        3456.       3456.       3456.       3454.       3454.       3454.       3454.       3454.       3454.       3455.    
        3455.       3455.       3455.       3458.       3458.       3458.       3460.       3460.       3460.       3461.    
        3461.       3461.       3462.       3462.       3462.       3463.       3463.       3463.       3463.       3463.    
        3463.       3462.       3462.       3462.       3462.       3462.       3462.       3461.       3461.       3461.    
        3462.       3462.       3462.       3463.       3463.       3465.       3465.       3467.       3469.       3468.    
        3469.       3469.       3470.       3469.       3469.       3470.       3470.       3469.       3469.       3469.    
        3470.       3472.       3472.       3473.       3473.       3473.    
  81    3452.       3452.       3449.       3446.       3446.       3444.       3442.       3439.       3437.       3437.    
        3436.       3434.       3430.       3425.       3419.       3419.       3417.       3417.       3417.       3418.    
        3418.       3418.       3418.       3417.       3417.       3417.       3420.       3420.       3420.       3422.    
        3422.       3422.       3422.       3422.       3422.       3422.       3422.       3422.       3423.       3423.    
        3423.       3424.       3424.       3424.       3425.       3425.       3425.       3425.       3425.       3425.    
        3427.       3427.       3427.       3430.       3430.       3430.       3434.       3434.       3434.       3434.    
        3434.       3434.       3436.       3436.       3436.       3438.       3438.       3438.       3440.       3440.    
        3440.       3442.       3442.       3442.       3442.       3443.       3443.       3443.       3445.       3445.    
        3445.       3445.       3445.       3445.       3445.       3445.       3445.       3448.       3448.       3448.    
        3451.       3451.       3451.       3452.       3452.       3452.       3454.       3454.       3454.       3454.    
        3454.       3454.       3456.       3456.       3456.       3459.       3459.       3459.       3461.       3461.    
        3461.       3463.       3463.       3463.       3463.       3463.       3463.       3460.       3460.       3460.    
        3460.       3460.       3460.       3460.       3460.       3460.       3461.       3461.       3461.       3463.    
        3463.       3463.       3463.       3465.       3465.       3465.       3466.       3466.       3466.       3464.    
        3464.       3464.       3464.       3464.       3464.       3464.       3464.       3464.       3467.       3467.    
        3467.       3469.       3469.       3469.       3469.       3469.       3469.       3469.       3469.       3469.    
        3467.       3467.       3467.       3467.       3467.       3466.       3466.       3467.       3468.       3468.    
        3468.       3468.       3468.       3468.       3469.       3472.       3472.       3474.       3475.       3474.    
        3473.       3475.       3475.       3476.       3477.       3478.    
  82    3452.       3452.       3449.       3446.       3446.       3444.       3442.       3439.       3437.       3437.    
        3436.       3434.       3430.       3425.       3419.       3419.       3417.       3417.       3417.       3418.    
        3418.       3418.       3418.       3417.       3417.       3417.       3420.       3420.       3420.       3422.    
        3422.       3422.       3422.       3422.       3422.       3422.       3422.       3422.       3423.       3423.    
        3423.       3424.       3424.       3424.       3425.       3425.       3425.       3425.       3425.       3425.    
        3427.       3427.       3427.       3430.       3430.       3430.       3434.       3434.       3434.       3434.    
        3434.       3434.       3436.       3436.       3436.       3438.       3438.       3438.       3440.       3440.    
        3440.       3442.       3442.       3442.       3442.       3443.       3443.       3443.       3445.       3445.    
        3445.       3445.       3445.       3445.       3445.       3445.       3445.       3448.       3448.       3448.    
        3451.       3451.       3451.       3452.       3452.       3452.       3454.       3454.       3455.       3454.    
        3454.       3454.       3456.       3456.       3456.       3459.       3459.       3459.       3461.       3461.    
        3461.       3463.       3463.       3463.       3463.       3463.       3463.       3460.       3460.       3460.    
        3460.       3460.       3460.       3460.       3460.       3460.       3461.       3461.       3470.       3463.    
        3463.       3463.       3463.       3465.       3465.       3465.       3466.       3466.       3466.       3464.    
        3464.       3464.       3464.       3464.       3464.       3464.       3464.       3464.       3467.       3467.    
        3467.       3469.       3469.       3469.       3469.       3469.       3469.       3468.       3469.       3469.    
        3467.       3467.       3467.       3467.       3467.       3466.       3466.       3467.       3468.       3468.    
        3468.       3468.       3468.       3468.       3469.       3472.       3472.       3474.       3475.       3474.    
        3473.       3475.       3475.       3476.       3477.       3478.    
  83    3452.       3451.       3448.       3446.       3446.       3443.       3442.       3439.       3437.       3437.    
        3437.       3435.       3432.       3425.       3421.       3421.       3417.       3417.       3417.       3415.    
        3415.       3415.       3415.       3418.       3418.       3418.       3421.       3421.       3421.       3421.    
        3421.       3421.       3423.       3423.       3423.       3424.       3424.       3424.       3424.       3424.    
        3424.       3425.       3425.       3425.       3426.       3426.       3426.       3427.       3427.       3427.    
        3427.       3427.       3427.       3430.       3430.       3430.       3434.       3434.       3434.       3436.    
        3436.       3436.       3434.       3434.       3434.       3435.       3435.       3435.       3437.       3437.    
        3437.       3440.       3440.       3440.       3440.       3442.       3442.       3442.       3444.       3444.    
        3444.       3445.       3445.       3445.       3447.       3447.       3447.       3450.       3450.       3450.    
        3453.       3453.       3453.       3455.       3455.       3455.       3455.       3455.       3455.       3455.    
        3455.       3455.       3456.       3456.       3456.       3460.       3460.       3460.       3463.       3463.    
        3463.       3464.       3464.       3464.       3466.       3466.       3466.       3465.       3465.       3465.    
        3465.       3465.       3465.       3468.       3468.       3468.       3470.       3470.       3470.       3472.    
        3472.       3472.       3472.       3471.       3471.       3471.       3469.       3469.       3469.       3468.    
        3468.       3468.       3467.       3467.       3467.       3469.       3469.       3469.       3470.       3470.    
        3470.       3469.       3469.       3469.       3469.       3469.       3469.       3468.       3468.       3468.    
        3467.       3467.       3467.       3467.       3467.       3467.       3467.       3467.       3468.       3467.    
        3468.       3468.       3468.       3469.       3471.       3472.       3472.       3479.       3482.       3484.    
        3484.       3484.       3484.       3485.       3487.       3487.    
  84    3451.       3449.       3447.       3445.       3445.       3443.       3440.       3439.       3437.       3437.    
        3436.       3433.       3431.       3427.       3422.       3422.       3417.       3417.       3417.       3417.    
        3417.       3417.       3417.       3419.       3419.       3419.       3421.       3421.       3421.       3421.    
        3421.       3421.       3422.       3422.       3422.       3422.       3422.       3422.       3424.       3424.    
        3424.       3426.       3426.       3426.       3427.       3427.       3427.       3427.       3427.       3427.    
        3427.       3427.       3427.       3431.       3431.       3431.       3439.       3439.       3439.       3440.    
        3440.       3440.       3437.       3437.       3437.       3435.       3435.       3435.       3436.       3436.    
        3436.       3439.       3439.       3439.       3439.       3440.       3440.       3440.       3442.       3442.    
        3442.       3443.       3443.       3443.       3445.       3445.       3445.       3449.       3449.       3449.    
        3454.       3454.       3454.       3454.       3454.       3454.       3454.       3454.       3454.       3455.    
        3455.       3455.       3456.       3456.       3456.       3459.       3459.       3459.       3462.       3462.    
        3462.       3466.       3466.       3466.       3467.       3467.       3467.       3467.       3467.       3467.    
        3466.       3466.       3466.       3467.       3467.       3467.       3469.       3469.       3469.       3470.    
        3470.       3470.       3470.       3471.       3471.       3471.       3473.       3473.       3473.       3473.    
        3473.       3473.       3473.       3473.       3473.       3473.       3473.       3473.       3475.       3475.    
        3475.       3475.       3475.       3475.       3473.       3473.       3473.       3470.       3470.       3470.    
        3468.       3468.       3468.       3467.       3467.       3467.       3467.       3467.       3469.       3470.    
        3470.       3470.       3471.       3473.       3476.       3479.       3479.       3479.       3485.       3485.    
        3486.       3488.       3488.       3489.       3488.       3487.    
  85    3451.       3450.       3448.       3445.       3445.       3443.       3440.       3439.       3437.       3437.    
        3436.       3433.       3430.       3426.       3422.       3422.       3418.       3418.       3418.       3419.    
        3419.       3419.       3419.       3422.       3422.       3422.       3420.       3420.       3420.       3419.    
        3419.       3419.       3420.       3420.       3420.       3421.       3421.       3421.       3424.       3424.    
        3424.       3427.       3427.       3427.       3427.       3427.       3427.       3426.       3426.       3426.    
        3428.       3428.       3428.       3431.       3431.       3431.       3440.       3440.       3440.       3442.    
        3442.       3442.       3443.       3443.       3443.       3439.       3439.       3439.       3438.       3438.    
        3438.       3440.       3440.       3440.       3440.       3442.       3442.       3442.       3442.       3442.    
        3442.       3442.       3442.       3442.       3444.       3444.       3444.       3447.       3447.       3447.    
        3451.       3451.       3451.       3455.       3455.       3455.       3454.       3454.       3454.       3454.    
        3454.       3454.       3457.       3457.       3457.       3461.       3461.       3461.       3463.       3463.    
        3463.       3464.       3464.       3464.       3466.       3466.       3466.       3469.       3469.       3469.    
        3470.       3470.       3470.       3470.       3470.       3470.       3470.       3470.       3470.       3472.    
        3472.       3472.       3472.       3473.       3473.       3473.       3475.       3475.       3475.       3476.    
        3476.       3476.       3476.       3476.       3476.       3476.       3476.       3476.       3480.       3480.    
        3480.       3481.       3481.       3481.       3480.       3480.       3480.       3476.       3476.       3476.    
        3473.       3473.       3473.       3473.       3473.       3472.       3472.       3472.       3473.       3473.    
        3473.       3473.       3475.       3478.       3480.       3483.       3483.       3485.       3485.       3488.    
        3487.       3488.       3488.       3490.       3491.       3490.    
  86    3454.       3450.       3448.       3446.       3446.       3445.       3442.       3439.       3436.       3436.    
        3433.       3430.       3426.       3423.       3421.       3421.       3421.       3421.       3421.       3423.    
        3423.       3423.       3423.       3423.       3423.       3423.       3422.       3422.       3422.       3419.    
        3419.       3419.       3420.       3420.       3420.       3422.       3422.       3422.       3424.       3424.    
        3424.       3425.       3425.       3425.       3425.       3425.       3425.       3425.       3425.       3425.    
        3427.       3427.       3427.       3430.       3430.       3430.       3438.       3438.       3438.       3447.    
        3447.       3447.       3448.       3448.       3448.       3445.       3445.       3445.       3442.       3442.    
        3442.       3443.       3443.       3443.       3443.       3442.       3442.       3442.       3443.       3443.    
        3443.       3444.       3444.       3444.       3445.       3445.       3445.       3446.       3446.       3446.    
        3448.       3448.       3448.       3452.       3452.       3452.       3455.       3455.       3455.       3457.    
        3457.       3457.       3461.       3461.       3461.       3466.       3466.       3466.       3467.       3467.    
        3467.       3467.       3467.       3467.       3469.       3469.       3469.       3471.       3471.       3471.    
        3472.       3472.       3472.       3473.       3473.       3473.       3473.       3473.       3473.       3475.    
        3475.       3475.       3475.       3476.       3476.       3476.       3477.       3477.       3477.       3476.    
        3476.       3476.       3476.       3476.       3476.       3478.       3478.       3478.       3480.       3480.    
        3480.       3480.       3480.       3480.       3481.       3481.       3481.       3482.       3482.       3482.    
        3479.       3479.       3479.       3478.       3478.       3476.       3476.       3475.       3476.       3478.    
        3478.       3478.       3479.       3481.       3481.       3482.       3482.       3485.       3487.       3488.    
        3487.       3488.       3488.       3490.       3490.       3490.    
  87    3454.       3450.       3448.       3446.       3446.       3445.       3442.       3439.       3436.       3436.    
        3433.       3430.       3426.       3423.       3421.       3421.       3421.       3421.       3421.       3423.    
        3423.       3423.       3423.       3423.       3423.       3423.       3422.       3422.       3422.       3419.    
        3419.       3419.       3420.       3420.       3420.       3422.       3422.       3422.       3424.       3424.    
        3424.       3425.       3425.       3425.       3425.       3425.       3425.       3425.       3425.       3425.    
        3427.       3427.       3427.       3430.       3430.       3430.       3438.       3438.       3438.       3447.    
        3447.       3447.       3448.       3448.       3448.       3445.       3445.       3445.       3442.       3442.    
        3442.       3443.       3443.       3443.       3443.       3442.       3442.       3442.       3443.       3443.    
        3443.       3444.       3444.       3444.       3445.       3445.       3445.       3446.       3446.       3446.    
        3448.       3448.       3448.       3452.       3452.       3452.       3455.       3455.       3455.       3457.    
        3457.       3457.       3461.       3461.       3461.       3466.       3466.       3466.       3467.       3467.    
        3467.       3467.       3467.       3467.       3469.       3469.       3469.       3471.       3471.       3471.    
        3472.       3472.       3472.       3473.       3473.       3473.       3473.       3473.       3473.       3475.    
        3475.       3475.       3475.       3476.       3476.       3476.       3477.       3477.       3477.       3476.    
        3476.       3476.       3476.       3476.       3476.       3478.       3478.       3478.       3480.       3480.    
        3480.       3480.       3480.       3480.       3481.       3481.       3481.       3482.       3482.       3482.    
        3479.       3479.       3479.       3478.       3478.       3476.       3476.       3475.       3476.       3478.    
        3478.       3478.       3479.       3481.       3481.       3482.       3482.       3485.       3487.       3488.    
        3487.       3488.       3488.       3490.       3490.       3490.    
  88    3456.       3452.       3449.       3448.       3448.       3446.       3443.       3439.       3436.       3436.    
        3432.       3430.       3425.       3423.       3424.       3424.       3420.       3420.       3420.       3422.    
        3422.       3422.       3422.       3424.       3424.       3424.       3423.       3423.       3423.       3421.    
        3421.       3421.       3421.       3421.       3421.       3423.       3423.       3423.       3424.       3424.    
        3424.       3427.       3427.       3427.       3426.       3426.       3426.       3427.       3427.       3427.    
        3428.       3428.       3428.       3431.       3431.       3431.       3439.       3439.       3439.       3447.    
        3447.       3447.       3448.       3448.       3448.       3445.       3445.       3445.       3445.       3445.    
        3445.       3444.       3444.       3444.       3444.       3442.       3442.       3442.       3442.       3442.    
        3442.       3443.       3443.       3443.       3444.       3444.       3444.       3445.       3445.       3445.    
        3445.       3445.       3445.       3447.       3447.       3447.       3451.       3451.       3451.       3457.    
        3457.       3457.       3463.       3463.       3463.       3467.       3467.       3467.       3469.       3469.    
        3469.       3469.       3469.       3469.       3470.       3470.       3470.       3471.       3471.       3471.    
        3471.       3471.       3471.       3472.       3472.       3472.       3472.       3472.       3472.       3473.    
        3473.       3473.       3473.       3473.       3473.       3473.       3476.       3476.       3476.       3478.    
        3478.       3478.       3478.       3478.       3478.       3479.       3479.       3479.       3479.       3479.    
        3479.       3480.       3480.       3480.       3481.       3481.       3481.       3483.       3483.       3483.    
        3483.       3483.       3483.       3482.       3482.       3481.       3481.       3478.       3477.       3478.    
        3479.       3479.       3481.       3482.       3482.       3482.       3482.       3484.       3485.       3487.    
        3490.       3491.       3491.       3492.       3491.       3491.    
  89    3455.       3452.       3449.       3446.       3446.       3444.       3442.       3439.       3435.       3435.    
        3431.       3428.       3427.       3424.       3425.       3425.       3424.       3424.       3424.       3425.    
        3425.       3425.       3425.       3421.       3421.       3421.       3421.       3421.       3421.       3421.    
        3421.       3421.       3422.       3422.       3422.       3422.       3422.       3422.       3424.       3424.    
        3424.       3425.       3425.       3425.       3430.       3430.       3430.       3431.       3431.       3431.    
        3430.       3430.       3430.       3433.       3433.       3433.       3437.       3437.       3437.       3446.    
        3446.       3446.       3448.       3448.       3448.       3448.       3448.       3448.       3448.       3448.    
        3448.       3446.       3446.       3446.       3446.       3443.       3443.       3443.       3443.       3443.    
        3443.       3443.       3443.       3443.       3442.       3442.       3442.       3443.       3443.       3443.    
        3444.       3444.       3444.       3448.       3448.       3448.       3451.       3451.       3451.       3454.    
        3454.       3454.       3460.       3460.       3460.       3466.       3466.       3466.       3469.       3469.    
        3469.       3469.       3469.       3469.       3472.       3472.       3472.       3472.       3472.       3472.    
        3470.       3470.       3470.       3470.       3470.       3470.       3470.       3470.       3470.       3472.    
        3472.       3472.       3472.       3475.       3475.       3475.       3476.       3476.       3476.       3478.    
        3478.       3478.       3478.       3478.       3478.       3479.       3479.       3479.       3479.       3479.    
        3479.       3482.       3482.       3482.       3482.       3482.       3482.       3484.       3484.       3484.    
        3487.       3487.       3487.       3485.       3485.       3483.       3483.       3482.       3481.       3481.    
        3479.       3479.       3479.       3481.       3482.       3483.       3483.       3485.       3487.       3490.    
        3490.       3493.       3493.       3495.       3493.       3493.    



             MODEL LAYER BOTTOM EL. FOR LAYER   3
 READING ON UNIT   12 WITH FORMAT: (FREE)              

            1           2           3           4           5           6           7           8           9          10
           11          12          13          14          15          16          17          18          19          20
           21          22          23          24          25          26          27          28          29          30
           31          32          33          34          35          36          37          38          39          40
           41          42          43          44          45          46          47          48          49          50
           51          52          53          54          55          56          57          58          59          60
           61          62          63          64          65          66          67          68          69          70
           71          72          73          74          75          76          77          78          79          80
           81          82          83          84          85          86          87          88          89          90
           91          92          93          94          95          96          97          98          99         100
          101         102         103         104         105         106         107         108         109         110
          111         112         113         114         115         116         117         118         119         120
          121         122         123         124         125         126         127         128         129         130
          131         132         133         134         135         136         137         138         139         140
          141         142         143         144         145         146         147         148         149         150
          151         152         153         154         155         156         157         158         159         160
          161         162         163         164         165         166         167         168         169         170
          171         172         173         174         175         176         177         178         179         180
          181         182         183         184         185         186
 ........................................................................................................................
   1    3353.       3355.       3356.       3356.       3356.       3354.       3355.       3355.       3355.       3355.    
        3354.       3353.       3354.       3356.       3358.       3358.       3359.       3359.       3359.       3360.    
        3360.       3360.       3360.       3361.       3361.       3361.       3364.       3364.       3364.       3366.    
        3366.       3366.       3369.       3369.       3369.       3368.       3368.       3368.       3369.       3369.    
        3369.       3369.       3369.       3369.       3369.       3369.       3369.       3369.       3369.       3369.    
        3369.       3369.       3369.       3369.       3369.       3369.       3369.       3369.       3369.       3370.    
        3370.       3370.       3370.       3370.       3370.       3370.       3370.       3370.       3370.       3370.    
        3370.       3370.       3370.       3370.       3370.       3370.       3370.       3370.       3371.       3371.    
        3371.       3371.       3371.       3371.       3372.       3372.       3372.       3372.       3372.       3372.    
        3371.       3371.       3371.       3372.       3372.       3372.       3374.       3374.       3374.       3376.    
        3376.       3376.       3377.       3377.       3377.       3379.       3379.       3379.       3381.       3381.    
        3381.       3382.       3382.       3382.       3385.       3385.       3385.       3387.       3387.       3387.    
        3387.       3387.       3387.       3388.       3388.       3388.       3388.       3388.       3388.       3388.    
        3388.       3388.       3388.       3387.       3387.       3387.       3387.       3387.       3387.       3388.    
        3388.       3388.       3388.       3388.       3388.       3389.       3389.       3389.       3389.       3389.    
        3389.       3389.       3389.       3389.       3390.       3390.       3390.       3389.       3389.       3389.    
        3388.       3388.       3388.       3388.       3388.       3389.       3389.       3389.       3389.       3389.    
        3389.       3389.       3390.       3391.       3392.       3392.       3392.       3392.       3393.       3393.    
        3394.       3393.       3393.       3393.       3394.       3394.    
   2    3354.       3354.       3356.       3357.       3357.       3355.       3354.       3354.       3354.       3354.    
        3353.       3353.       3355.       3357.       3359.       3359.       3359.       3359.       3359.       3360.    
        3360.       3360.       3360.       3361.       3361.       3361.       3363.       3363.       3363.       3365.    
        3365.       3365.       3368.       3368.       3368.       3368.       3368.       3368.       3369.       3369.    
        3369.       3369.       3369.       3369.       3369.       3369.       3369.       3369.       3369.       3369.    
        3368.       3368.       3368.       3369.       3369.       3369.       3369.       3369.       3369.       3369.    
        3369.       3369.       3369.       3369.       3369.       3370.       3370.       3370.       3370.       3370.    
        3370.       3370.       3370.       3370.       3370.       3371.       3371.       3371.       3371.       3371.    
        3371.       3371.       3371.       3371.       3371.       3371.       3371.       3371.       3371.       3371.    
        3371.       3371.       3371.       3372.       3372.       3372.       3373.       3373.       3373.       3374.    
        3374.       3374.       3374.       3374.       3374.       3376.       3376.       3376.       3379.       3379.    
        3379.       3382.       3382.       3382.       3386.       3386.       3386.       3387.       3387.       3387.    
        3387.       3387.       3387.       3386.       3386.       3386.       3386.       3386.       3386.       3387.    
        3387.       3387.       3387.       3387.       3387.       3387.       3388.       3388.       3388.       3389.    
        3389.       3389.       3389.       3389.       3389.       3389.       3389.       3389.       3389.       3389.    
        3389.       3389.       3389.       3389.       3389.       3389.       3389.       3389.       3389.       3389.    
        3388.       3388.       3388.       3388.       3388.       3389.       3389.       3390.       3389.       3390.    
        3390.       3390.       3390.       3391.       3391.       3391.       3391.       3392.       3392.       3392.    
        3392.       3394.       3394.       3393.       3394.       3395.    
   3    3354.       3353.       3356.       3355.       3355.       3354.       3354.       3354.       3353.       3353.    
        3353.       3354.       3356.       3358.       3359.       3359.       3359.       3359.       3359.       3359.    
        3359.       3359.       3359.       3360.       3360.       3360.       3362.       3362.       3362.       3363.    
        3363.       3363.       3365.       3365.       3365.       3367.       3367.       3367.       3368.       3368.    
        3368.       3369.       3369.       3369.       3369.       3369.       3369.       3369.       3369.       3369.    
        3368.       3368.       3368.       3368.       3368.       3368.       3368.       3368.       3368.       3369.    
        3369.       3369.       3369.       3369.       3369.       3370.       3370.       3370.       3370.       3370.    
        3370.       3370.       3370.       3370.       3370.       3370.       3370.       3370.       3370.       3370.    
        3370.       3371.       3371.       3371.       3371.       3371.       3371.       3370.       3370.       3370.    
        3370.       3370.       3370.       3371.       3371.       3371.       3373.       3373.       3373.       3372.    
        3372.       3372.       3372.       3372.       3372.       3374.       3374.       3374.       3376.       3376.    
        3376.       3380.       3380.       3380.       3383.       3383.       3383.       3386.       3386.       3386.    
        3386.       3386.       3386.       3386.       3386.       3386.       3386.       3386.       3386.       3386.    
        3386.       3386.       3386.       3387.       3387.       3387.       3387.       3387.       3387.       3388.    
        3388.       3388.       3388.       3388.       3388.       3388.       3388.       3388.       3388.       3388.    
        3388.       3389.       3389.       3389.       3389.       3389.       3389.       3388.       3388.       3388.    
        3389.       3389.       3389.       3389.       3389.       3389.       3389.       3389.       3389.       3389.    
        3389.       3389.       3389.       3389.       3390.       3391.       3391.       3392.       3392.       3392.    
        3394.       3394.       3394.       3394.       3395.       3395.    
   4    3354.       3353.       3355.       3355.       3355.       3354.       3354.       3354.       3354.       3354.    
        3354.       3355.       3355.       3356.       3358.       3358.       3359.       3359.       3359.       3359.    
        3359.       3359.       3359.       3360.       3360.       3360.       3362.       3362.       3362.       3362.    
        3362.       3362.       3363.       3363.       3363.       3365.       3365.       3365.       3367.       3367.    
        3367.       3369.       3369.       3369.       3369.       3369.       3369.       3369.       3369.       3369.    
        3369.       3369.       3369.       3369.       3369.       3369.       3369.       3369.       3369.       3369.    
        3369.       3369.       3370.       3370.       3370.       3370.       3370.       3370.       3370.       3370.    
        3370.       3370.       3370.       3370.       3370.       3370.       3370.       3370.       3370.       3370.    
        3370.       3371.       3371.       3371.       3371.       3371.       3371.       3370.       3370.       3370.    
        3370.       3370.       3370.       3371.       3371.       3371.       3373.       3373.       3373.       3373.    
        3373.       3373.       3372.       3372.       3372.       3373.       3373.       3373.       3374.       3374.    
        3374.       3375.       3375.       3375.       3377.       3377.       3377.       3380.       3380.       3380.    
        3383.       3383.       3383.       3385.       3385.       3385.       3386.       3386.       3386.       3386.    
        3386.       3386.       3386.       3386.       3386.       3386.       3386.       3386.       3386.       3387.    
        3387.       3387.       3387.       3387.       3387.       3388.       3388.       3388.       3388.       3388.    
        3388.       3390.       3390.       3390.       3389.       3389.       3389.       3389.       3389.       3389.    
        3389.       3389.       3389.       3389.       3389.       3389.       3389.       3389.       3388.       3389.    
        3389.       3389.       3389.       3389.       3390.       3390.       3390.       3390.       3391.       3391.    
        3392.       3393.       3393.       3393.       3394.       3394.    
   5    3354.       3353.       3355.       3355.       3355.       3354.       3354.       3354.       3354.       3354.    
        3354.       3355.       3355.       3356.       3358.       3358.       3359.       3359.       3359.       3359.    
        3359.       3359.       3359.       3360.       3360.       3360.       3362.       3362.       3362.       3362.    
        3362.       3362.       3363.       3363.       3363.       3365.       3365.       3365.       3367.       3367.    
        3367.       3369.       3369.       3369.       3369.       3369.       3369.       3369.       3369.       3369.    
        3369.       3369.       3369.       3369.       3369.       3369.       3369.       3369.       3369.       3369.    
        3369.       3369.       3370.       3370.       3370.       3370.       3370.       3370.       3370.       3370.    
        3370.       3370.       3370.       3370.       3370.       3370.       3370.       3370.       3370.       3370.    
        3370.       3371.       3371.       3371.       3371.       3371.       3371.       3370.       3370.       3370.    
        3370.       3370.       3370.       3371.       3371.       3371.       3373.       3373.       3373.       3373.    
        3373.       3373.       3372.       3372.       3372.       3373.       3373.       3373.       3374.       3374.    
        3374.       3375.       3375.       3375.       3377.       3377.       3377.       3380.       3380.       3380.    
        3383.       3383.       3383.       3385.       3385.       3385.       3386.       3386.       3386.       3386.    
        3386.       3386.       3386.       3386.       3386.       3386.       3386.       3386.       3386.       3387.    
        3387.       3387.       3387.       3387.       3387.       3388.       3388.       3388.       3388.       3388.    
        3388.       3390.       3390.       3390.       3389.       3389.       3389.       3389.       3389.       3389.    
        3389.       3389.       3389.       3389.       3389.       3389.       3389.       3389.       3388.       3389.    
        3389.       3389.       3389.       3389.       3390.       3390.       3390.       3390.       3391.       3391.    
        3392.       3393.       3393.       3393.       3394.       3394.    
   6    3355.       3354.       3355.       3355.       3355.       3354.       3354.       3355.       3352.       3352.    
        3354.       3355.       3356.       3357.       3358.       3358.       3359.       3359.       3359.       3359.    
        3359.       3359.       3359.       3361.       3361.       3361.       3362.       3362.       3362.       3362.    
        3362.       3362.       3362.       3362.       3362.       3363.       3363.       3363.       3365.       3365.    
        3365.       3368.       3368.       3368.       3369.       3369.       3369.       3369.       3369.       3369.    
        3369.       3369.       3369.       3369.       3369.       3369.       3370.       3370.       3370.       3370.    
        3370.       3370.       3369.       3369.       3369.       3370.       3370.       3370.       3370.       3370.    
        3370.       3370.       3370.       3370.       3370.       3370.       3370.       3370.       3371.       3371.    
        3371.       3371.       3371.       3371.       3370.       3370.       3370.       3370.       3370.       3370.    
        3370.       3370.       3370.       3372.       3372.       3372.       3373.       3373.       3373.       3374.    
        3374.       3374.       3374.       3374.       3374.       3373.       3373.       3373.       3374.       3374.    
        3374.       3374.       3374.       3374.       3374.       3374.       3374.       3375.       3375.       3375.    
        3377.       3377.       3377.       3378.       3378.       3378.       3380.       3380.       3380.       3382.    
        3382.       3382.       3382.       3384.       3384.       3384.       3385.       3385.       3385.       3387.    
        3387.       3387.       3388.       3388.       3388.       3388.       3388.       3388.       3388.       3388.    
        3388.       3390.       3390.       3390.       3390.       3390.       3390.       3389.       3389.       3389.    
        3389.       3389.       3389.       3389.       3389.       3389.       3389.       3389.       3387.       3387.    
        3387.       3387.       3387.       3387.       3388.       3388.       3388.       3388.       3387.       3387.    
        3387.       3388.       3388.       3388.       3390.       3391.    
   7    3354.       3354.       3353.       3355.       3355.       3354.       3355.       3355.       3355.       3355.    
        3355.       3356.       3356.       3357.       3359.       3359.       3359.       3359.       3359.       3360.    
        3360.       3360.       3360.       3361.       3361.       3361.       3362.       3362.       3362.       3362.    
        3362.       3362.       3361.       3361.       3361.       3362.       3362.       3362.       3363.       3363.    
        3363.       3365.       3365.       3365.       3367.       3367.       3367.       3369.       3369.       3369.    
        3369.       3369.       3369.       3370.       3370.       3370.       3370.       3370.       3370.       3370.    
        3370.       3370.       3370.       3370.       3370.       3370.       3370.       3370.       3370.       3370.    
        3370.       3370.       3370.       3370.       3370.       3370.       3370.       3370.       3370.       3370.    
        3370.       3370.       3370.       3370.       3370.       3370.       3370.       3370.       3370.       3370.    
        3371.       3371.       3371.       3372.       3372.       3372.       3372.       3372.       3372.       3373.    
        3373.       3373.       3374.       3374.       3374.       3374.       3374.       3374.       3373.       3373.    
        3373.       3374.       3374.       3374.       3375.       3375.       3375.       3375.       3375.       3375.    
        3376.       3376.       3376.       3376.       3376.       3376.       3377.       3377.       3377.       3378.    
        3378.       3378.       3378.       3379.       3379.       3379.       3380.       3380.       3380.       3382.    
        3382.       3382.       3384.       3384.       3384.       3386.       3386.       3386.       3388.       3388.    
        3388.       3388.       3388.       3388.       3388.       3388.       3388.       3386.       3386.       3386.    
        3384.       3384.       3384.       3382.       3382.       3381.       3381.       3381.       3379.       3379.    
        3378.       3378.       3378.       3378.       3378.       3379.       3379.       3380.       3380.       3382.    
        3383.       3383.       3383.       3384.       3384.       3385.    
   8    3355.       3354.       3356.       3356.       3356.       3353.       3353.       3355.       3355.       3355.    
        3355.       3356.       3357.       3358.       3359.       3359.       3360.       3360.       3360.       3360.    
        3360.       3360.       3360.       3360.       3360.       3360.       3361.       3361.       3361.       3362.    
        3362.       3362.       3361.       3361.       3361.       3361.       3361.       3361.       3361.       3361.    
        3361.       3363.       3363.       3363.       3364.       3364.       3364.       3367.       3367.       3367.    
        3369.       3369.       3369.       3371.       3371.       3371.       3372.       3372.       3372.       3371.    
        3371.       3371.       3370.       3370.       3370.       3370.       3370.       3370.       3370.       3370.    
        3370.       3370.       3370.       3370.       3370.       3371.       3371.       3371.       3371.       3371.    
        3371.       3370.       3370.       3370.       3370.       3370.       3370.       3370.       3370.       3370.    
        3371.       3371.       3371.       3372.       3372.       3372.       3371.       3371.       3371.       3372.    
        3372.       3372.       3373.       3373.       3373.       3374.       3374.       3374.       3374.       3374.    
        3374.       3373.       3373.       3373.       3373.       3373.       3373.       3374.       3374.       3374.    
        3374.       3374.       3374.       3376.       3376.       3376.       3376.       3376.       3376.       3377.    
        3377.       3377.       3377.       3377.       3377.       3377.       3377.       3377.       3377.       3378.    
        3378.       3378.       3379.       3379.       3379.       3381.       3381.       3381.       3382.       3382.    
        3382.       3382.       3382.       3382.       3380.       3380.       3380.       3378.       3378.       3378.    
        3376.       3376.       3376.       3375.       3375.       3375.       3375.       3375.       3375.       3375.    
        3375.       3375.       3374.       3374.       3375.       3376.       3376.       3376.       3376.       3376.    
        3377.       3379.       3379.       3380.       3380.       3380.    
   9    3355.       3355.       3356.       3355.       3355.       3356.       3353.       3355.       3355.       3355.    
        3355.       3356.       3356.       3358.       3358.       3358.       3359.       3359.       3359.       3360.    
        3360.       3360.       3360.       3360.       3360.       3360.       3360.       3360.       3360.       3361.    
        3361.       3361.       3361.       3361.       3361.       3361.       3361.       3361.       3360.       3360.    
        3360.       3361.       3361.       3361.       3362.       3362.       3362.       3364.       3364.       3364.    
        3367.       3367.       3367.       3369.       3369.       3369.       3371.       3371.       3371.       3371.    
        3371.       3371.       3372.       3372.       3372.       3372.       3372.       3372.       3372.       3372.    
        3372.       3372.       3372.       3372.       3372.       3372.       3372.       3372.       3372.       3372.    
        3372.       3372.       3372.       3372.       3371.       3371.       3371.       3371.       3371.       3371.    
        3371.       3371.       3371.       3371.       3371.       3371.       3371.       3371.       3371.       3372.    
        3372.       3372.       3373.       3373.       3373.       3375.       3375.       3375.       3375.       3375.    
        3375.       3374.       3374.       3374.       3373.       3373.       3373.       3373.       3373.       3373.    
        3372.       3372.       3372.       3373.       3373.       3373.       3374.       3374.       3374.       3375.    
        3375.       3375.       3375.       3376.       3376.       3376.       3377.       3377.       3377.       3377.    
        3377.       3377.       3378.       3378.       3378.       3378.       3378.       3378.       3377.       3377.    
        3377.       3375.       3375.       3375.       3375.       3375.       3375.       3376.       3376.       3376.    
        3374.       3374.       3374.       3374.       3374.       3374.       3374.       3374.       3374.       3374.    
        3372.       3372.       3372.       3373.       3374.       3374.       3374.       3374.       3374.       3373.    
        3374.       3375.       3375.       3376.       3375.       3375.    
  10    3356.       3356.       3356.       3357.       3357.       3356.       3354.       3353.       3355.       3355.    
        3355.       3356.       3356.       3356.       3358.       3358.       3359.       3359.       3359.       3360.    
        3360.       3360.       3360.       3360.       3360.       3360.       3361.       3361.       3361.       3362.    
        3362.       3362.       3362.       3362.       3362.       3362.       3362.       3362.       3362.       3362.    
        3362.       3361.       3361.       3361.       3361.       3361.       3361.       3362.       3362.       3362.    
        3364.       3364.       3364.       3366.       3366.       3366.       3369.       3369.       3369.       3370.    
        3370.       3370.       3370.       3370.       3370.       3371.       3371.       3371.       3371.       3371.    
        3371.       3372.       3372.       3372.       3372.       3373.       3373.       3373.       3372.       3372.    
        3372.       3372.       3372.       3372.       3372.       3372.       3372.       3372.       3372.       3372.    
        3373.       3373.       3373.       3373.       3373.       3373.       3372.       3372.       3372.       3372.    
        3372.       3372.       3374.       3374.       3374.       3374.       3374.       3374.       3375.       3375.    
        3375.       3375.       3375.       3375.       3375.       3375.       3375.       3374.       3374.       3374.    
        3374.       3374.       3374.       3373.       3373.       3373.       3373.       3373.       3373.       3373.    
        3373.       3373.       3373.       3374.       3374.       3374.       3375.       3375.       3375.       3375.    
        3375.       3375.       3375.       3375.       3375.       3373.       3373.       3373.       3370.       3370.    
        3370.       3370.       3370.       3370.       3371.       3371.       3371.       3372.       3372.       3372.    
        3372.       3372.       3372.       3371.       3371.       3371.       3371.       3372.       3372.       3372.    
        3371.       3371.       3371.       3371.       3372.       3373.       3373.       3373.       3373.       3372.    
        3373.       3373.       3373.       3373.       3374.       3374.    
  11    3356.       3356.       3356.       3357.       3357.       3356.       3354.       3353.       3355.       3355.    
        3355.       3356.       3356.       3356.       3358.       3358.       3359.       3359.       3359.       3360.    
        3360.       3360.       3360.       3360.       3360.       3360.       3361.       3361.       3361.       3362.    
        3362.       3362.       3362.       3362.       3362.       3362.       3362.       3362.       3362.       3362.    
        3362.       3361.       3361.       3361.       3361.       3361.       3361.       3362.       3362.       3362.    
        3364.       3364.       3364.       3366.       3366.       3366.       3369.       3369.       3369.       3370.    
        3370.       3370.       3370.       3370.       3370.       3371.       3371.       3371.       3371.       3371.    
        3371.       3372.       3372.       3372.       3372.       3373.       3373.       3373.       3372.       3372.    
        3372.       3372.       3372.       3372.       3372.       3372.       3372.       3372.       3372.       3372.    
        3373.       3373.       3373.       3373.       3373.       3373.       3372.       3372.       3372.       3372.    
        3372.       3372.       3374.       3374.       3374.       3374.       3374.       3374.       3375.       3375.    
        3375.       3375.       3375.       3375.       3375.       3375.       3375.       3374.       3374.       3374.    
        3374.       3374.       3374.       3373.       3373.       3373.       3373.       3373.       3373.       3373.    
        3373.       3373.       3373.       3374.       3374.       3374.       3375.       3375.       3375.       3375.    
        3375.       3375.       3375.       3375.       3375.       3373.       3373.       3373.       3370.       3370.    
        3370.       3370.       3370.       3370.       3371.       3371.       3371.       3372.       3372.       3372.    
        3372.       3372.       3372.       3371.       3371.       3371.       3371.       3372.       3372.       3372.    
        3371.       3371.       3371.       3371.       3372.       3373.       3373.       3373.       3373.       3372.    
        3373.       3373.       3373.       3373.       3374.       3374.    
  12    3356.       3356.       3356.       3357.       3357.       3356.       3354.       3354.       3355.       3355.    
        3355.       3355.       3355.       3356.       3357.       3357.       3358.       3358.       3358.       3360.    
        3360.       3360.       3360.       3361.       3361.       3361.       3361.       3361.       3361.       3362.    
        3362.       3362.       3362.       3362.       3362.       3362.       3362.       3362.       3362.       3362.    
        3362.       3362.       3362.       3362.       3362.       3362.       3362.       3362.       3362.       3362.    
        3362.       3362.       3362.       3364.       3364.       3364.       3365.       3365.       3365.       3367.    
        3367.       3367.       3369.       3369.       3369.       3370.       3370.       3370.       3370.       3370.    
        3370.       3371.       3371.       3371.       3371.       3371.       3371.       3371.       3372.       3372.    
        3372.       3371.       3371.       3371.       3372.       3372.       3372.       3372.       3372.       3372.    
        3372.       3372.       3372.       3372.       3372.       3372.       3373.       3373.       3373.       3373.    
        3373.       3373.       3374.       3374.       3374.       3373.       3373.       3373.       3374.       3374.    
        3374.       3374.       3374.       3374.       3374.       3374.       3374.       3374.       3374.       3374.    
        3373.       3373.       3373.       3373.       3373.       3373.       3373.       3373.       3373.       3373.    
        3373.       3373.       3373.       3372.       3372.       3372.       3371.       3371.       3371.       3370.    
        3370.       3370.       3370.       3370.       3370.       3368.       3368.       3368.       3367.       3367.    
        3367.       3368.       3368.       3368.       3367.       3367.       3367.       3368.       3368.       3368.    
        3368.       3368.       3368.       3369.       3369.       3370.       3370.       3370.       3370.       3370.    
        3369.       3369.       3369.       3369.       3370.       3371.       3371.       3371.       3371.       3372.    
        3372.       3372.       3372.       3373.       3373.       3374.    
  13    3356.       3355.       3354.       3355.       3355.       3355.       3355.       3355.       3355.       3355.    
        3354.       3353.       3354.       3355.       3356.       3356.       3357.       3357.       3357.       3358.    
        3358.       3358.       3358.       3360.       3360.       3360.       3361.       3361.       3361.       3362.    
        3362.       3362.       3362.       3362.       3362.       3361.       3361.       3361.       3361.       3361.    
        3361.       3361.       3361.       3361.       3361.       3361.       3361.       3361.       3361.       3361.    
        3361.       3361.       3361.       3362.       3362.       3362.       3362.       3362.       3362.       3363.    
        3363.       3363.       3364.       3364.       3364.       3366.       3366.       3366.       3368.       3368.    
        3368.       3369.       3369.       3369.       3369.       3369.       3369.       3369.       3370.       3370.    
        3370.       3370.       3370.       3370.       3370.       3370.       3370.       3371.       3371.       3371.    
        3371.       3371.       3371.       3371.       3371.       3371.       3371.       3371.       3371.       3371.    
        3371.       3371.       3372.       3372.       3372.       3373.       3373.       3373.       3371.       3371.    
        3371.       3371.       3371.       3371.       3371.       3371.       3371.       3372.       3372.       3372.    
        3372.       3372.       3372.       3372.       3372.       3372.       3372.       3372.       3372.       3372.    
        3372.       3372.       3372.       3370.       3370.       3370.       3368.       3368.       3368.       3368.    
        3368.       3368.       3367.       3367.       3367.       3367.       3367.       3367.       3366.       3366.    
        3366.       3366.       3366.       3366.       3366.       3366.       3366.       3365.       3365.       3365.    
        3366.       3366.       3366.       3367.       3367.       3367.       3367.       3368.       3368.       3368.    
        3369.       3369.       3369.       3370.       3370.       3371.       3371.       3371.       3371.       3371.    
        3372.       3373.       3373.       3373.       3373.       3374.    
  14    3357.       3356.       3355.       3355.       3355.       3355.       3356.       3355.       3354.       3354.    
        3354.       3355.       3355.       3355.       3355.       3355.       3356.       3356.       3356.       3358.    
        3358.       3358.       3358.       3360.       3360.       3360.       3361.       3361.       3361.       3361.    
        3361.       3361.       3361.       3361.       3361.       3360.       3360.       3360.       3360.       3360.    
        3360.       3360.       3360.       3360.       3360.       3360.       3360.       3360.       3360.       3360.    
        3361.       3361.       3361.       3361.       3361.       3361.       3360.       3360.       3360.       3361.    
        3361.       3361.       3362.       3362.       3362.       3363.       3363.       3363.       3364.       3364.    
        3364.       3365.       3365.       3365.       3365.       3366.       3366.       3366.       3366.       3366.    
        3366.       3367.       3367.       3367.       3368.       3368.       3368.       3369.       3369.       3369.    
        3369.       3369.       3369.       3369.       3369.       3369.       3369.       3369.       3369.       3369.    
        3369.       3369.       3370.       3370.       3370.       3370.       3370.       3370.       3371.       3371.    
        3371.       3369.       3369.       3369.       3368.       3368.       3368.       3368.       3368.       3368.    
        3368.       3368.       3368.       3368.       3368.       3368.       3368.       3368.       3368.       3368.    
        3368.       3368.       3368.       3368.       3368.       3368.       3367.       3367.       3367.       3366.    
        3366.       3366.       3366.       3366.       3366.       3366.       3366.       3366.       3366.       3366.    
        3366.       3367.       3367.       3367.       3367.       3367.       3367.       3367.       3367.       3367.    
        3367.       3367.       3367.       3368.       3368.       3368.       3368.       3369.       3368.       3368.    
        3369.       3369.       3370.       3371.       3371.       3372.       3372.       3372.       3372.       3372.    
        3372.       3372.       3372.       3372.       3373.       3374.    
  15    3358.       3357.       3356.       3355.       3355.       3355.       3356.       3356.       3355.       3355.    
        3354.       3355.       3356.       3356.       3356.       3356.       3356.       3356.       3356.       3356.    
        3356.       3356.       3356.       3358.       3358.       3358.       3360.       3360.       3360.       3361.    
        3361.       3361.       3362.       3362.       3362.       3361.       3361.       3361.       3362.       3362.    
        3362.       3362.       3362.       3362.       3362.       3362.       3362.       3363.       3363.       3363.    
        3362.       3362.       3362.       3363.       3363.       3363.       3362.       3362.       3362.       3362.    
        3362.       3362.       3362.       3362.       3362.       3362.       3362.       3362.       3362.       3362.    
        3362.       3362.       3362.       3362.       3362.       3363.       3363.       3363.       3364.       3364.    
        3364.       3364.       3364.       3364.       3365.       3365.       3365.       3365.       3365.       3365.    
        3366.       3366.       3366.       3366.       3366.       3366.       3367.       3367.       3367.       3367.    
        3367.       3367.       3367.       3367.       3367.       3368.       3368.       3368.       3368.       3368.    
        3368.       3366.       3366.       3366.       3367.       3367.       3367.       3368.       3368.       3368.    
        3368.       3368.       3368.       3368.       3368.       3368.       3367.       3367.       3367.       3365.    
        3365.       3365.       3365.       3365.       3365.       3365.       3365.       3365.       3365.       3366.    
        3366.       3366.       3366.       3366.       3366.       3366.       3366.       3366.       3367.       3367.    
        3367.       3368.       3368.       3368.       3368.       3368.       3368.       3368.       3368.       3368.    
        3369.       3369.       3369.       3370.       3370.       3370.       3370.       3370.       3369.       3369.    
        3370.       3370.       3371.       3371.       3372.       3372.       3372.       3373.       3373.       3373.    
        3373.       3372.       3372.       3373.       3374.       3374.    
  16    3360.       3358.       3357.       3356.       3356.       3353.       3354.       3356.       3356.       3356.    
        3355.       3354.       3355.       3356.       3356.       3356.       3356.       3356.       3356.       3356.    
        3356.       3356.       3356.       3357.       3357.       3357.       3357.       3357.       3357.       3358.    
        3358.       3358.       3359.       3359.       3359.       3360.       3360.       3360.       3361.       3361.    
        3361.       3360.       3360.       3360.       3362.       3362.       3362.       3362.       3362.       3362.    
        3362.       3362.       3362.       3362.       3362.       3362.       3363.       3363.       3363.       3364.    
        3364.       3364.       3364.       3364.       3364.       3364.       3364.       3364.       3364.       3364.    
        3364.       3363.       3363.       3363.       3363.       3363.       3363.       3363.       3363.       3363.    
        3363.       3364.       3364.       3364.       3364.       3364.       3364.       3363.       3363.       3363.    
        3364.       3364.       3364.       3364.       3364.       3364.       3365.       3365.       3365.       3365.    
        3365.       3365.       3366.       3366.       3366.       3366.       3366.       3366.       3366.       3366.    
        3366.       3366.       3366.       3366.       3365.       3365.       3365.       3365.       3365.       3365.    
        3366.       3366.       3366.       3366.       3366.       3366.       3365.       3365.       3365.       3364.    
        3364.       3364.       3364.       3364.       3364.       3364.       3364.       3364.       3364.       3365.    
        3365.       3365.       3366.       3366.       3366.       3366.       3366.       3366.       3367.       3367.    
        3367.       3367.       3367.       3367.       3368.       3368.       3368.       3368.       3368.       3368.    
        3369.       3369.       3369.       3369.       3369.       3370.       3370.       3369.       3369.       3370.    
        3370.       3370.       3371.       3371.       3371.       3372.       3372.       3373.       3373.       3373.    
        3372.       3372.       3372.       3373.       3374.       3374.    
  17    3360.       3358.       3357.       3356.       3356.       3353.       3354.       3356.       3356.       3356.    
        3355.       3354.       3355.       3356.       3356.       3356.       3356.       3356.       3356.       3356.    
        3356.       3356.       3356.       3357.       3357.       3357.       3357.       3357.       3357.       3358.    
        3358.       3358.       3359.       3359.       3359.       3360.       3360.       3360.       3361.       3361.    
        3361.       3360.       3360.       3360.       3362.       3362.       3362.       3362.       3362.       3362.    
        3362.       3362.       3362.       3362.       3362.       3362.       3363.       3363.       3363.       3364.    
        3364.       3364.       3364.       3364.       3364.       3364.       3364.       3364.       3364.       3364.    
        3364.       3363.       3363.       3363.       3363.       3363.       3363.       3363.       3363.       3363.    
        3363.       3364.       3364.       3364.       3364.       3364.       3364.       3363.       3363.       3363.    
        3364.       3364.       3364.       3364.       3364.       3364.       3365.       3365.       3365.       3365.    
        3365.       3365.       3366.       3366.       3366.       3366.       3366.       3366.       3366.       3366.    
        3366.       3366.       3366.       3366.       3365.       3365.       3365.       3365.       3365.       3365.    
        3366.       3366.       3366.       3366.       3366.       3366.       3365.       3365.       3365.       3364.    
        3364.       3364.       3364.       3364.       3364.       3364.       3364.       3364.       3364.       3365.    
        3365.       3365.       3366.       3366.       3366.       3366.       3366.       3366.       3367.       3367.    
        3367.       3367.       3367.       3367.       3368.       3368.       3368.       3368.       3368.       3368.    
        3369.       3369.       3369.       3369.       3369.       3370.       3370.       3369.       3369.       3370.    
        3370.       3370.       3371.       3371.       3371.       3372.       3372.       3373.       3373.       3373.    
        3372.       3372.       3372.       3373.       3374.       3374.    
  18    3360.       3359.       3359.       3356.       3356.       3356.       3356.       3356.       3356.       3356.    
        3355.       3355.       3356.       3357.       3358.       3358.       3358.       3358.       3358.       3358.    
        3358.       3358.       3358.       3357.       3357.       3357.       3357.       3357.       3357.       3356.    
        3356.       3356.       3357.       3357.       3357.       3358.       3358.       3358.       3359.       3359.    
        3359.       3359.       3359.       3359.       3359.       3359.       3359.       3359.       3359.       3359.    
        3361.       3361.       3361.       3362.       3362.       3362.       3363.       3363.       3363.       3363.    
        3363.       3363.       3363.       3363.       3363.       3363.       3363.       3363.       3364.       3364.    
        3364.       3363.       3363.       3363.       3363.       3363.       3363.       3363.       3364.       3364.    
        3364.       3364.       3364.       3364.       3364.       3364.       3364.       3363.       3363.       3363.    
        3363.       3363.       3363.       3364.       3364.       3364.       3364.       3364.       3364.       3364.    
        3364.       3364.       3364.       3364.       3364.       3365.       3365.       3365.       3365.       3365.    
        3365.       3365.       3365.       3365.       3365.       3365.       3365.       3362.       3362.       3362.    
        3363.       3363.       3363.       3364.       3364.       3364.       3364.       3364.       3364.       3364.    
        3364.       3364.       3364.       3365.       3365.       3365.       3365.       3365.       3365.       3367.    
        3367.       3367.       3368.       3368.       3368.       3368.       3368.       3368.       3368.       3368.    
        3368.       3368.       3368.       3368.       3368.       3368.       3368.       3369.       3369.       3369.    
        3370.       3370.       3370.       3371.       3371.       3371.       3371.       3371.       3370.       3370.    
        3370.       3370.       3371.       3371.       3370.       3371.       3371.       3372.       3373.       3373.    
        3372.       3372.       3372.       3372.       3373.       3374.    
  19    3361.       3360.       3360.       3357.       3357.       3358.       3359.       3357.       3357.       3357.    
        3355.       3356.       3356.       3357.       3358.       3358.       3358.       3358.       3358.       3359.    
        3359.       3359.       3359.       3358.       3358.       3358.       3358.       3358.       3358.       3357.    
        3357.       3357.       3357.       3357.       3357.       3358.       3358.       3358.       3358.       3358.    
        3358.       3358.       3358.       3358.       3358.       3358.       3358.       3358.       3358.       3358.    
        3358.       3358.       3358.       3360.       3360.       3360.       3361.       3361.       3361.       3361.    
        3361.       3361.       3362.       3362.       3362.       3362.       3362.       3362.       3363.       3363.    
        3363.       3362.       3362.       3362.       3362.       3362.       3362.       3362.       3363.       3363.    
        3363.       3364.       3364.       3364.       3363.       3363.       3363.       3363.       3363.       3363.    
        3363.       3363.       3363.       3363.       3363.       3363.       3364.       3364.       3364.       3364.    
        3364.       3364.       3364.       3364.       3364.       3365.       3365.       3365.       3365.       3365.    
        3365.       3364.       3364.       3364.       3363.       3363.       3363.       3362.       3362.       3362.    
        3362.       3362.       3362.       3363.       3363.       3363.       3364.       3364.       3364.       3365.    
        3365.       3365.       3365.       3366.       3366.       3366.       3366.       3366.       3366.       3366.    
        3366.       3366.       3368.       3368.       3368.       3368.       3368.       3368.       3368.       3368.    
        3368.       3368.       3368.       3368.       3369.       3369.       3369.       3369.       3369.       3369.    
        3370.       3370.       3370.       3371.       3371.       3372.       3372.       3372.       3371.       3371.    
        3370.       3370.       3370.       3370.       3370.       3371.       3371.       3371.       3372.       3373.    
        3372.       3373.       3373.       3374.       3375.       3376.    
  20    3361.       3361.       3359.       3357.       3357.       3358.       3359.       3358.       3358.       3358.    
        3357.       3356.       3355.       3356.       3357.       3357.       3358.       3358.       3358.       3357.    
        3357.       3357.       3357.       3357.       3357.       3357.       3358.       3358.       3358.       3358.    
        3358.       3358.       3358.       3358.       3358.       3358.       3358.       3358.       3358.       3358.    
        3358.       3358.       3358.       3358.       3358.       3358.       3358.       3358.       3358.       3358.    
        3358.       3358.       3358.       3358.       3358.       3358.       3359.       3359.       3359.       3359.    
        3359.       3359.       3359.       3359.       3359.       3360.       3360.       3360.       3361.       3361.    
        3361.       3361.       3361.       3361.       3361.       3361.       3361.       3361.       3362.       3362.    
        3362.       3363.       3363.       3363.       3363.       3363.       3363.       3362.       3362.       3362.    
        3363.       3363.       3363.       3363.       3363.       3363.       3363.       3363.       3363.       3363.    
        3363.       3363.       3364.       3364.       3364.       3365.       3365.       3365.       3366.       3366.    
        3366.       3364.       3364.       3364.       3362.       3362.       3362.       3361.       3361.       3361.    
        3362.       3362.       3362.       3364.       3364.       3364.       3365.       3365.       3365.       3365.    
        3365.       3365.       3365.       3366.       3366.       3366.       3366.       3366.       3366.       3366.    
        3366.       3366.       3367.       3367.       3367.       3368.       3368.       3368.       3369.       3369.    
        3369.       3369.       3369.       3369.       3369.       3369.       3369.       3369.       3369.       3369.    
        3370.       3370.       3370.       3371.       3371.       3372.       3372.       3372.       3371.       3371.    
        3370.       3370.       3371.       3370.       3371.       3371.       3371.       3372.       3374.       3374.    
        3374.       3375.       3375.       3376.       3375.       3376.    
  21    3362.       3362.       3360.       3357.       3357.       3358.       3358.       3358.       3358.       3358.    
        3357.       3356.       3355.       3355.       3356.       3356.       3356.       3356.       3356.       3356.    
        3356.       3356.       3356.       3356.       3356.       3356.       3357.       3357.       3357.       3358.    
        3358.       3358.       3358.       3358.       3358.       3357.       3357.       3357.       3357.       3357.    
        3357.       3358.       3358.       3358.       3358.       3358.       3358.       3359.       3359.       3359.    
        3358.       3358.       3358.       3358.       3358.       3358.       3358.       3358.       3358.       3358.    
        3358.       3358.       3358.       3358.       3358.       3358.       3358.       3358.       3359.       3359.    
        3359.       3359.       3359.       3359.       3359.       3360.       3360.       3360.       3361.       3361.    
        3361.       3362.       3362.       3362.       3363.       3363.       3363.       3363.       3363.       3363.    
        3363.       3363.       3363.       3363.       3363.       3363.       3362.       3362.       3362.       3363.    
        3363.       3363.       3364.       3364.       3364.       3364.       3364.       3364.       3364.       3364.    
        3364.       3364.       3364.       3364.       3363.       3363.       3363.       3362.       3362.       3362.    
        3362.       3362.       3362.       3364.       3364.       3364.       3365.       3365.       3365.       3366.    
        3366.       3366.       3366.       3367.       3367.       3367.       3368.       3368.       3368.       3368.    
        3368.       3368.       3368.       3368.       3368.       3368.       3368.       3368.       3369.       3369.    
        3369.       3369.       3369.       3369.       3370.       3370.       3370.       3370.       3370.       3370.    
        3370.       3370.       3370.       3370.       3370.       3370.       3370.       3371.       3371.       3371.    
        3371.       3371.       3370.       3370.       3371.       3372.       3372.       3373.       3374.       3374.    
        3374.       3374.       3374.       3375.       3375.       3375.    
  22    3362.       3362.       3360.       3357.       3357.       3358.       3358.       3358.       3358.       3358.    
        3357.       3356.       3355.       3355.       3356.       3356.       3356.       3356.       3356.       3356.    
        3356.       3356.       3356.       3356.       3356.       3356.       3357.       3357.       3357.       3358.    
        3358.       3358.       3358.       3358.       3358.       3357.       3357.       3357.       3357.       3357.    
        3357.       3358.       3358.       3358.       3358.       3358.       3358.       3359.       3359.       3359.    
        3358.       3358.       3358.       3358.       3358.       3358.       3358.       3358.       3358.       3358.    
        3358.       3358.       3358.       3358.       3358.       3358.       3358.       3358.       3359.       3359.    
        3359.       3359.       3359.       3359.       3359.       3360.       3360.       3360.       3361.       3361.    
        3361.       3362.       3362.       3362.       3363.       3363.       3363.       3363.       3363.       3363.    
        3363.       3363.       3363.       3363.       3363.       3363.       3362.       3362.       3362.       3363.    
        3363.       3363.       3364.       3364.       3364.       3364.       3364.       3364.       3364.       3364.    
        3364.       3364.       3364.       3364.       3363.       3363.       3363.       3362.       3362.       3362.    
        3362.       3362.       3362.       3364.       3364.       3364.       3365.       3365.       3365.       3366.    
        3366.       3366.       3366.       3367.       3367.       3367.       3368.       3368.       3368.       3368.    
        3368.       3368.       3368.       3368.       3368.       3368.       3368.       3368.       3369.       3369.    
        3369.       3369.       3369.       3369.       3370.       3370.       3370.       3369.       3370.       3370.    
        3370.       3370.       3370.       3370.       3370.       3370.       3370.       3371.       3371.       3371.    
        3371.       3371.       3370.       3370.       3371.       3372.       3372.       3373.       3374.       3374.    
        3374.       3374.       3374.       3375.       3375.       3375.    
  23    3362.       3361.       3358.       3357.       3357.       3357.       3357.       3358.       3357.       3357.    
        3357.       3356.       3356.       3356.       3356.       3356.       3356.       3356.       3356.       3356.    
        3356.       3356.       3356.       3357.       3357.       3357.       3357.       3357.       3357.       3358.    
        3358.       3358.       3358.       3358.       3358.       3358.       3358.       3358.       3358.       3358.    
        3358.       3358.       3358.       3358.       3358.       3358.       3358.       3359.       3359.       3359.    
        3358.       3358.       3358.       3359.       3359.       3359.       3359.       3359.       3359.       3359.    
        3359.       3359.       3359.       3359.       3359.       3359.       3359.       3359.       3359.       3359.    
        3359.       3358.       3358.       3358.       3358.       3359.       3359.       3359.       3360.       3360.    
        3360.       3361.       3361.       3361.       3361.       3361.       3361.       3361.       3361.       3361.    
        3362.       3362.       3362.       3362.       3362.       3362.       3362.       3362.       3362.       3362.    
        3362.       3362.       3362.       3362.       3362.       3362.       3362.       3362.       3362.       3362.    
        3362.       3362.       3362.       3362.       3363.       3363.       3363.       3363.       3363.       3363.    
        3364.       3364.       3364.       3365.       3365.       3365.       3365.       3365.       3365.       3366.    
        3366.       3366.       3366.       3367.       3367.       3367.       3367.       3367.       3367.       3367.    
        3367.       3367.       3367.       3367.       3367.       3367.       3367.       3367.       3368.       3368.    
        3368.       3368.       3368.       3368.       3368.       3368.       3368.       3369.       3369.       3369.    
        3370.       3370.       3370.       3370.       3370.       3370.       3370.       3370.       3370.       3371.    
        3372.       3372.       3371.       3371.       3371.       3372.       3372.       3373.       3374.       3374.    
        3374.       3374.       3374.       3374.       3374.       3375.    
  24    3361.       3360.       3358.       3357.       3357.       3356.       3356.       3358.       3357.       3357.    
        3356.       3356.       3357.       3357.       3357.       3357.       3357.       3357.       3357.       3358.    
        3358.       3358.       3358.       3358.       3358.       3358.       3358.       3358.       3358.       3359.    
        3359.       3359.       3359.       3359.       3359.       3360.       3360.       3360.       3359.       3359.    
        3359.       3359.       3359.       3359.       3359.       3359.       3359.       3359.       3359.       3359.    
        3359.       3359.       3359.       3359.       3359.       3359.       3360.       3360.       3360.       3360.    
        3360.       3360.       3360.       3360.       3360.       3361.       3361.       3361.       3361.       3361.    
        3361.       3360.       3360.       3360.       3360.       3360.       3360.       3360.       3361.       3361.    
        3361.       3361.       3361.       3361.       3361.       3361.       3361.       3361.       3361.       3361.    
        3361.       3361.       3361.       3362.       3362.       3362.       3362.       3362.       3362.       3362.    
        3362.       3362.       3362.       3362.       3362.       3362.       3362.       3362.       3363.       3363.    
        3363.       3363.       3363.       3363.       3364.       3364.       3364.       3364.       3364.       3364.    
        3365.       3365.       3365.       3365.       3365.       3365.       3366.       3366.       3366.       3366.    
        3366.       3366.       3366.       3366.       3366.       3366.       3367.       3367.       3367.       3368.    
        3368.       3368.       3368.       3368.       3368.       3369.       3369.       3369.       3369.       3369.    
        3369.       3370.       3370.       3370.       3370.       3370.       3370.       3370.       3370.       3370.    
        3370.       3370.       3370.       3370.       3370.       3370.       3370.       3370.       3371.       3372.    
        3372.       3372.       3373.       3373.       3373.       3372.       3372.       3373.       3373.       3374.    
        3373.       3373.       3373.       3374.       3374.       3375.    
  25    3360.       3359.       3357.       3356.       3356.       3356.       3356.       3358.       3357.       3357.    
        3357.       3356.       3357.       3357.       3358.       3358.       3358.       3358.       3358.       3358.    
        3358.       3358.       3358.       3358.       3358.       3358.       3359.       3359.       3359.       3360.    
        3360.       3360.       3360.       3360.       3360.       3360.       3360.       3360.       3360.       3360.    
        3360.       3359.       3359.       3359.       3359.       3359.       3359.       3359.       3359.       3359.    
        3360.       3360.       3360.       3360.       3360.       3360.       3361.       3361.       3361.       3362.    
        3362.       3362.       3362.       3362.       3362.       3362.       3362.       3362.       3362.       3362.    
        3362.       3362.       3362.       3362.       3362.       3362.       3362.       3362.       3362.       3362.    
        3362.       3361.       3361.       3361.       3362.       3362.       3362.       3362.       3362.       3362.    
        3362.       3362.       3362.       3362.       3362.       3362.       3363.       3363.       3363.       3363.    
        3363.       3363.       3364.       3364.       3364.       3364.       3364.       3364.       3365.       3365.    
        3365.       3365.       3365.       3365.       3365.       3365.       3365.       3365.       3365.       3365.    
        3365.       3365.       3365.       3365.       3365.       3365.       3365.       3365.       3365.       3366.    
        3366.       3366.       3366.       3367.       3367.       3367.       3368.       3368.       3368.       3368.    
        3368.       3368.       3369.       3369.       3369.       3369.       3369.       3369.       3370.       3370.    
        3370.       3372.       3372.       3372.       3373.       3373.       3373.       3373.       3373.       3373.    
        3371.       3371.       3371.       3370.       3370.       3370.       3370.       3371.       3372.       3372.    
        3372.       3372.       3373.       3374.       3374.       3374.       3374.       3374.       3374.       3374.    
        3375.       3375.       3375.       3375.       3375.       3375.    
  26    3359.       3358.       3357.       3356.       3356.       3357.       3357.       3358.       3358.       3358.    
        3357.       3357.       3357.       3357.       3358.       3358.       3358.       3358.       3358.       3358.    
        3358.       3358.       3358.       3358.       3358.       3358.       3359.       3359.       3359.       3360.    
        3360.       3360.       3360.       3360.       3360.       3359.       3359.       3359.       3359.       3359.    
        3359.       3359.       3359.       3359.       3359.       3359.       3359.       3359.       3359.       3359.    
        3360.       3360.       3360.       3361.       3361.       3361.       3360.       3360.       3360.       3360.    
        3360.       3360.       3361.       3361.       3361.       3361.       3361.       3361.       3362.       3362.    
        3362.       3362.       3362.       3362.       3362.       3363.       3363.       3363.       3362.       3362.    
        3362.       3362.       3362.       3362.       3362.       3362.       3362.       3362.       3362.       3362.    
        3362.       3362.       3362.       3362.       3362.       3362.       3362.       3362.       3362.       3362.    
        3362.       3362.       3363.       3363.       3363.       3364.       3364.       3364.       3364.       3364.    
        3364.       3365.       3365.       3365.       3365.       3365.       3365.       3365.       3365.       3365.    
        3365.       3365.       3365.       3365.       3365.       3365.       3365.       3365.       3365.       3366.    
        3366.       3366.       3366.       3367.       3367.       3367.       3368.       3368.       3368.       3368.    
        3368.       3368.       3369.       3369.       3369.       3369.       3369.       3369.       3370.       3370.    
        3370.       3371.       3371.       3371.       3372.       3372.       3372.       3373.       3373.       3373.    
        3373.       3373.       3373.       3372.       3372.       3372.       3372.       3372.       3372.       3372.    
        3372.       3372.       3373.       3374.       3374.       3374.       3374.       3374.       3374.       3374.    
        3374.       3375.       3375.       3375.       3375.       3376.    
  27    3359.       3358.       3357.       3356.       3356.       3357.       3357.       3358.       3358.       3358.    
        3357.       3357.       3357.       3357.       3358.       3358.       3358.       3358.       3358.       3358.    
        3358.       3358.       3358.       3358.       3358.       3358.       3359.       3359.       3359.       3360.    
        3360.       3360.       3360.       3360.       3360.       3359.       3359.       3359.       3359.       3359.    
        3359.       3359.       3359.       3359.       3359.       3359.       3359.       3359.       3359.       3359.    
        3360.       3360.       3360.       3361.       3361.       3361.       3360.       3360.       3360.       3360.    
        3360.       3360.       3361.       3361.       3361.       3361.       3361.       3361.       3362.       3362.    
        3362.       3362.       3362.       3362.       3362.       3363.       3363.       3363.       3362.       3362.    
        3362.       3362.       3362.       3362.       3362.       3362.       3362.       3362.       3362.       3362.    
        3362.       3362.       3362.       3362.       3362.       3362.       3362.       3362.       3362.       3362.    
        3362.       3362.       3363.       3363.       3363.       3364.       3364.       3364.       3364.       3364.    
        3364.       3365.       3365.       3365.       3365.       3365.       3365.       3365.       3365.       3365.    
        3365.       3365.       3365.       3365.       3365.       3365.       3365.       3365.       3365.       3366.    
        3366.       3366.       3366.       3367.       3367.       3367.       3368.       3368.       3368.       3368.    
        3368.       3368.       3369.       3369.       3369.       3369.       3369.       3369.       3370.       3370.    
        3370.       3371.       3371.       3371.       3372.       3372.       3372.       3373.       3373.       3373.    
        3373.       3373.       3373.       3372.       3372.       3372.       3372.       3372.       3372.       3372.    
        3372.       3372.       3373.       3374.       3374.       3374.       3374.       3374.       3374.       3374.    
        3374.       3375.       3375.       3375.       3375.       3376.    
  28    3358.       3358.       3357.       3357.       3357.       3357.       3357.       3357.       3357.       3357.    
        3357.       3357.       3358.       3358.       3359.       3359.       3359.       3359.       3359.       3359.    
        3359.       3359.       3359.       3358.       3358.       3358.       3359.       3359.       3359.       3360.    
        3360.       3360.       3360.       3360.       3360.       3360.       3360.       3360.       3360.       3360.    
        3360.       3360.       3360.       3360.       3359.       3359.       3359.       3360.       3360.       3360.    
        3360.       3360.       3360.       3361.       3361.       3361.       3360.       3360.       3360.       3360.    
        3360.       3360.       3361.       3361.       3361.       3362.       3362.       3362.       3362.       3362.    
        3362.       3362.       3362.       3362.       3362.       3362.       3362.       3362.       3362.       3362.    
        3362.       3362.       3362.       3362.       3363.       3363.       3363.       3363.       3363.       3363.    
        3363.       3363.       3363.       3363.       3363.       3363.       3363.       3363.       3363.       3363.    
        3363.       3363.       3363.       3363.       3363.       3364.       3364.       3364.       3364.       3364.    
        3364.       3364.       3364.       3364.       3365.       3365.       3365.       3365.       3365.       3365.    
        3365.       3365.       3365.       3365.       3365.       3365.       3366.       3366.       3366.       3367.    
        3367.       3367.       3367.       3368.       3368.       3368.       3368.       3368.       3368.       3369.    
        3369.       3369.       3369.       3369.       3369.       3369.       3369.       3369.       3370.       3370.    
        3370.       3370.       3370.       3370.       3371.       3371.       3371.       3372.       3372.       3372.    
        3373.       3373.       3373.       3373.       3373.       3372.       3372.       3372.       3373.       3373.    
        3373.       3373.       3374.       3374.       3374.       3373.       3373.       3374.       3374.       3374.    
        3374.       3374.       3374.       3374.       3374.       3375.    
  29    3358.       3358.       3357.       3357.       3357.       3357.       3357.       3357.       3357.       3357.    
        3357.       3357.       3358.       3358.       3359.       3359.       3359.       3359.       3359.       3359.    
        3359.       3359.       3359.       3358.       3358.       3358.       3359.       3359.       3359.       3360.    
        3360.       3360.       3360.       3360.       3360.       3360.       3360.       3360.       3360.       3360.    
        3360.       3360.       3360.       3360.       3359.       3359.       3359.       3360.       3360.       3360.    
        3360.       3360.       3360.       3361.       3361.       3361.       3360.       3360.       3360.       3360.    
        3360.       3360.       3361.       3361.       3361.       3362.       3362.       3362.       3362.       3362.    
        3362.       3362.       3362.       3362.       3362.       3362.       3362.       3362.       3362.       3362.    
        3362.       3362.       3362.       3362.       3363.       3363.       3363.       3363.       3363.       3363.    
        3363.       3363.       3363.       3363.       3363.       3363.       3363.       3363.       3363.       3363.    
        3363.       3363.       3363.       3363.       3363.       3364.       3364.       3364.       3364.       3364.    
        3364.       3364.       3364.       3364.       3365.       3365.       3365.       3365.       3365.       3365.    
        3365.       3365.       3365.       3365.       3365.       3365.       3366.       3366.       3366.       3367.    
        3367.       3367.       3367.       3368.       3368.       3368.       3368.       3368.       3368.       3369.    
        3369.       3369.       3369.       3369.       3369.       3369.       3369.       3369.       3370.       3370.    
        3370.       3370.       3370.       3370.       3371.       3371.       3371.       3372.       3372.       3372.    
        3373.       3373.       3373.       3373.       3373.       3372.       3372.       3372.       3373.       3373.    
        3373.       3373.       3374.       3374.       3374.       3373.       3373.       3374.       3374.       3374.    
        3374.       3374.       3374.       3374.       3374.       3375.    
  30    3358.       3358.       3357.       3357.       3357.       3357.       3357.       3357.       3357.       3357.    
        3357.       3357.       3358.       3358.       3359.       3359.       3359.       3359.       3359.       3359.    
        3359.       3359.       3359.       3358.       3358.       3358.       3359.       3359.       3359.       3360.    
        3360.       3360.       3360.       3360.       3360.       3360.       3360.       3360.       3360.       3360.    
        3360.       3360.       3360.       3360.       3359.       3359.       3359.       3360.       3360.       3360.    
        3360.       3360.       3360.       3361.       3361.       3361.       3360.       3360.       3360.       3360.    
        3360.       3360.       3361.       3361.       3361.       3362.       3362.       3362.       3362.       3362.    
        3362.       3362.       3362.       3362.       3362.       3362.       3362.       3362.       3362.       3362.    
        3362.       3362.       3362.       3362.       3363.       3363.       3363.       3363.       3363.       3363.    
        3363.       3363.       3363.       3363.       3363.       3363.       3363.       3363.       3363.       3363.    
        3363.       3363.       3363.       3363.       3363.       3364.       3364.       3364.       3364.       3364.    
        3364.       3364.       3364.       3364.       3365.       3365.       3365.       3365.       3365.       3365.    
        3365.       3365.       3365.       3365.       3365.       3365.       3366.       3366.       3366.       3367.    
        3367.       3367.       3367.       3368.       3368.       3368.       3368.       3368.       3368.       3369.    
        3369.       3369.       3369.       3369.       3369.       3369.       3369.       3369.       3370.       3370.    
        3370.       3370.       3370.       3370.       3371.       3371.       3371.       3372.       3372.       3372.    
        3373.       3373.       3373.       3373.       3373.       3372.       3372.       3372.       3373.       3373.    
        3373.       3373.       3374.       3374.       3374.       3373.       3373.       3374.       3374.       3374.    
        3374.       3374.       3374.       3374.       3374.       3375.    
  31    3359.       3358.       3358.       3358.       3358.       3358.       3357.       3357.       3356.       3356.    
        3356.       3357.       3359.       3360.       3360.       3360.       3359.       3359.       3359.       3359.    
        3359.       3359.       3359.       3359.       3359.       3359.       3361.       3361.       3361.       3361.    
        3361.       3361.       3360.       3360.       3360.       3360.       3360.       3360.       3360.       3360.    
        3360.       3360.       3360.       3360.       3360.       3360.       3360.       3361.       3361.       3361.    
        3361.       3361.       3361.       3361.       3361.       3361.       3361.       3361.       3361.       3361.    
        3361.       3361.       3361.       3361.       3361.       3362.       3362.       3362.       3362.       3362.    
        3362.       3362.       3362.       3362.       3362.       3362.       3362.       3362.       3362.       3362.    
        3362.       3362.       3362.       3362.       3363.       3363.       3363.       3363.       3363.       3363.    
        3363.       3363.       3363.       3363.       3363.       3363.       3364.       3364.       3364.       3364.    
        3364.       3364.       3364.       3364.       3364.       3363.       3363.       3363.       3364.       3364.    
        3364.       3365.       3365.       3365.       3365.       3365.       3365.       3365.       3365.       3365.    
        3365.       3365.       3365.       3366.       3366.       3366.       3367.       3367.       3367.       3367.    
        3367.       3367.       3367.       3367.       3367.       3367.       3368.       3368.       3368.       3369.    
        3369.       3369.       3369.       3369.       3369.       3369.       3369.       3369.       3369.       3369.    
        3369.       3370.       3370.       3370.       3371.       3371.       3371.       3372.       3372.       3372.    
        3372.       3372.       3372.       3372.       3372.       3372.       3372.       3372.       3373.       3374.    
        3374.       3374.       3373.       3373.       3373.       3373.       3373.       3374.       3374.       3374.    
        3374.       3375.       3375.       3375.       3375.       3375.    
  32    3359.       3358.       3358.       3358.       3358.       3358.       3357.       3357.       3356.       3356.    
        3356.       3357.       3359.       3360.       3360.       3360.       3359.       3359.       3359.       3359.    
        3359.       3359.       3359.       3359.       3359.       3359.       3361.       3361.       3361.       3361.    
        3361.       3361.       3360.       3360.       3360.       3360.       3360.       3360.       3360.       3360.    
        3360.       3360.       3360.       3360.       3360.       3360.       3360.       3361.       3361.       3361.    
        3361.       3361.       3361.       3361.       3361.       3361.       3361.       3361.       3361.       3361.    
        3361.       3361.       3361.       3361.       3361.       3362.       3362.       3362.       3362.       3362.    
        3362.       3362.       3362.       3362.       3362.       3362.       3362.       3362.       3362.       3362.    
        3362.       3362.       3362.       3362.       3363.       3363.       3363.       3363.       3363.       3363.    
        3363.       3363.       3363.       3363.       3363.       3363.       3364.       3364.       3364.       3364.    
        3364.       3364.       3364.       3364.       3364.       3363.       3363.       3363.       3364.       3364.    
        3364.       3365.       3365.       3365.       3365.       3365.       3365.       3365.       3365.       3365.    
        3365.       3365.       3365.       3366.       3366.       3366.       3367.       3367.       3367.       3367.    
        3367.       3367.       3367.       3367.       3367.       3367.       3368.       3368.       3368.       3369.    
        3369.       3369.       3369.       3369.       3369.       3369.       3369.       3369.       3369.       3369.    
        3369.       3370.       3370.       3370.       3371.       3371.       3371.       3372.       3372.       3372.    
        3372.       3372.       3372.       3372.       3372.       3372.       3372.       3372.       3373.       3374.    
        3374.       3374.       3373.       3373.       3373.       3373.       3373.       3374.       3374.       3374.    
        3374.       3375.       3375.       3375.       3375.       3375.    
  33    3359.       3358.       3358.       3358.       3358.       3358.       3357.       3357.       3356.       3356.    
        3356.       3357.       3359.       3360.       3360.       3360.       3359.       3359.       3359.       3359.    
        3359.       3359.       3359.       3359.       3359.       3359.       3361.       3361.       3361.       3361.    
        3361.       3361.       3360.       3360.       3360.       3360.       3360.       3360.       3360.       3360.    
        3360.       3360.       3360.       3360.       3360.       3360.       3360.       3361.       3361.       3361.    
        3361.       3361.       3361.       3361.       3361.       3361.       3361.       3361.       3361.       3361.    
        3361.       3361.       3361.       3361.       3361.       3362.       3362.       3362.       3362.       3362.    
        3362.       3362.       3362.       3362.       3362.       3362.       3362.       3362.       3362.       3362.    
        3362.       3362.       3362.       3362.       3363.       3363.       3363.       3363.       3363.       3363.    
        3363.       3363.       3363.       3363.       3363.       3363.       3364.       3364.       3364.       3364.    
        3364.       3364.       3364.       3364.       3364.       3363.       3363.       3363.       3364.       3364.    
        3364.       3365.       3365.       3365.       3365.       3365.       3365.       3365.       3365.       3365.    
        3365.       3365.       3365.       3366.       3366.       3366.       3367.       3367.       3367.       3367.    
        3367.       3367.       3367.       3367.       3367.       3367.       3368.       3368.       3368.       3369.    
        3369.       3369.       3369.       3369.       3369.       3369.       3369.       3369.       3369.       3369.    
        3369.       3370.       3370.       3370.       3371.       3371.       3371.       3372.       3372.       3372.    
        3372.       3372.       3372.       3372.       3372.       3372.       3372.       3372.       3373.       3374.    
        3374.       3374.       3373.       3373.       3373.       3373.       3373.       3374.       3374.       3374.    
        3374.       3375.       3375.       3375.       3375.       3375.    
  34    3361.       3359.       3359.       3358.       3358.       3358.       3358.       3356.       3356.       3356.    
        3356.       3357.       3358.       3359.       3359.       3359.       3359.       3359.       3359.       3358.    
        3358.       3358.       3358.       3358.       3358.       3358.       3360.       3360.       3360.       3361.    
        3361.       3361.       3360.       3360.       3360.       3360.       3360.       3360.       3361.       3361.    
        3361.       3361.       3361.       3361.       3361.       3361.       3361.       3360.       3360.       3360.    
        3361.       3361.       3361.       3361.       3361.       3361.       3361.       3361.       3361.       3361.    
        3361.       3361.       3362.       3362.       3362.       3362.       3362.       3362.       3363.       3363.    
        3363.       3363.       3363.       3363.       3363.       3363.       3363.       3363.       3363.       3363.    
        3363.       3363.       3363.       3363.       3363.       3363.       3363.       3363.       3363.       3363.    
        3364.       3364.       3364.       3364.       3364.       3364.       3364.       3364.       3364.       3364.    
        3364.       3364.       3364.       3364.       3364.       3365.       3365.       3365.       3365.       3365.    
        3365.       3366.       3366.       3366.       3366.       3366.       3366.       3366.       3366.       3366.    
        3367.       3367.       3367.       3368.       3368.       3368.       3367.       3367.       3367.       3366.    
        3366.       3366.       3366.       3366.       3366.       3366.       3367.       3367.       3367.       3369.    
        3369.       3369.       3369.       3369.       3369.       3369.       3369.       3369.       3369.       3369.    
        3369.       3369.       3369.       3369.       3369.       3369.       3369.       3370.       3370.       3370.    
        3371.       3371.       3371.       3372.       3372.       3372.       3372.       3373.       3373.       3373.    
        3374.       3374.       3374.       3374.       3374.       3374.       3374.       3375.       3376.       3375.    
        3375.       3375.       3375.       3376.       3376.       3376.    
  35    3361.       3359.       3359.       3358.       3358.       3358.       3358.       3356.       3356.       3356.    
        3356.       3357.       3358.       3359.       3359.       3359.       3359.       3359.       3359.       3358.    
        3358.       3358.       3358.       3358.       3358.       3358.       3360.       3360.       3360.       3361.    
        3361.       3361.       3360.       3360.       3360.       3360.       3360.       3360.       3361.       3361.    
        3361.       3361.       3361.       3361.       3361.       3361.       3361.       3360.       3360.       3360.    
        3361.       3361.       3361.       3361.       3361.       3361.       3361.       3361.       3361.       3361.    
        3361.       3361.       3362.       3362.       3362.       3362.       3362.       3362.       3363.       3363.    
        3363.       3363.       3363.       3363.       3363.       3363.       3363.       3363.       3363.       3363.    
        3363.       3363.       3363.       3363.       3363.       3363.       3363.       3363.       3363.       3363.    
        3364.       3364.       3364.       3364.       3364.       3364.       3364.       3364.       3364.       3364.    
        3364.       3364.       3364.       3364.       3364.       3365.       3365.       3365.       3365.       3365.    
        3365.       3366.       3366.       3366.       3366.       3366.       3366.       3366.       3366.       3366.    
        3367.       3367.       3367.       3368.       3368.       3368.       3367.       3367.       3367.       3366.    
        3366.       3366.       3366.       3366.       3366.       3366.       3367.       3367.       3367.       3369.    
        3369.       3369.       3369.       3369.       3369.       3369.       3369.       3369.       3369.       3369.    
        3369.       3369.       3369.       3369.       3369.       3369.       3369.       3370.       3370.       3370.    
        3371.       3371.       3371.       3372.       3372.       3372.       3372.       3373.       3373.       3373.    
        3374.       3374.       3374.       3374.       3374.       3374.       3374.       3375.       3376.       3375.    
        3375.       3375.       3375.       3376.       3376.       3376.    
  36    3361.       3359.       3359.       3358.       3358.       3358.       3358.       3356.       3356.       3356.    
        3356.       3357.       3358.       3359.       3359.       3359.       3359.       3359.       3359.       3358.    
        3358.       3358.       3358.       3358.       3358.       3358.       3360.       3360.       3360.       3361.    
        3361.       3361.       3360.       3360.       3360.       3360.       3360.       3360.       3361.       3361.    
        3361.       3361.       3361.       3361.       3361.       3361.       3361.       3360.       3360.       3360.    
        3361.       3361.       3361.       3361.       3361.       3361.       3361.       3361.       3361.       3361.    
        3361.       3361.       3362.       3362.       3362.       3362.       3362.       3362.       3363.       3363.    
        3363.       3363.       3363.       3363.       3363.       3363.       3363.       3363.       3363.       3363.    
        3363.       3363.       3363.       3363.       3363.       3363.       3363.       3363.       3363.       3363.    
        3364.       3364.       3364.       3364.       3364.       3364.       3364.       3364.       3364.       3364.    
        3364.       3364.       3364.       3364.       3364.       3365.       3365.       3365.       3365.       3365.    
        3365.       3366.       3366.       3366.       3366.       3366.       3366.       3366.       3366.       3366.    
        3367.       3367.       3367.       3368.       3368.       3368.       3367.       3367.       3367.       3367.    
        3366.       3366.       3366.       3366.       3366.       3366.       3367.       3367.       3367.       3369.    
        3369.       3369.       3369.       3369.       3369.       3369.       3369.       3369.       3369.       3369.    
        3369.       3369.       3369.       3369.       3369.       3369.       3369.       3370.       3370.       3370.    
        3371.       3371.       3371.       3372.       3372.       3372.       3372.       3373.       3373.       3373.    
        3374.       3374.       3374.       3374.       3374.       3374.       3374.       3375.       3376.       3375.    
        3375.       3375.       3375.       3376.       3376.       3376.    
  37    3363.       3361.       3359.       3359.       3359.       3359.       3358.       3357.       3357.       3357.    
        3356.       3356.       3358.       3358.       3358.       3358.       3359.       3359.       3359.       3358.    
        3358.       3358.       3358.       3357.       3357.       3357.       3358.       3358.       3358.       3359.    
        3359.       3359.       3359.       3359.       3359.       3359.       3359.       3359.       3360.       3360.    
        3360.       3361.       3361.       3361.       3360.       3360.       3360.       3361.       3361.       3361.    
        3361.       3361.       3361.       3362.       3362.       3362.       3362.       3362.       3362.       3362.    
        3362.       3362.       3363.       3363.       3363.       3363.       3363.       3363.       3364.       3364.    
        3364.       3363.       3363.       3363.       3363.       3363.       3363.       3363.       3363.       3363.    
        3363.       3364.       3364.       3364.       3364.       3364.       3364.       3364.       3364.       3364.    
        3364.       3364.       3364.       3364.       3364.       3364.       3365.       3365.       3365.       3365.    
        3365.       3365.       3365.       3365.       3365.       3365.       3365.       3365.       3365.       3365.    
        3365.       3366.       3366.       3366.       3366.       3366.       3366.       3366.       3366.       3366.    
        3367.       3367.       3367.       3368.       3368.       3368.       3368.       3368.       3368.       3368.    
        3368.       3368.       3368.       3367.       3367.       3367.       3368.       3368.       3368.       3369.    
        3369.       3369.       3369.       3369.       3369.       3369.       3369.       3369.       3369.       3369.    
        3369.       3369.       3369.       3369.       3369.       3369.       3369.       3369.       3369.       3369.    
        3370.       3370.       3370.       3371.       3371.       3372.       3372.       3372.       3372.       3373.    
        3373.       3373.       3374.       3375.       3375.       3376.       3376.       3376.       3376.       3375.    
        3375.       3375.       3375.       3375.       3376.       3376.    
  38    3363.       3361.       3359.       3359.       3359.       3359.       3358.       3357.       3357.       3357.    
        3356.       3356.       3358.       3358.       3358.       3358.       3359.       3359.       3359.       3358.    
        3358.       3358.       3358.       3357.       3357.       3357.       3358.       3358.       3358.       3359.    
        3359.       3359.       3359.       3359.       3359.       3359.       3359.       3359.       3360.       3360.    
        3360.       3361.       3361.       3361.       3360.       3360.       3360.       3361.       3361.       3361.    
        3361.       3361.       3361.       3362.       3362.       3362.       3362.       3362.       3362.       3362.    
        3362.       3362.       3363.       3363.       3363.       3363.       3363.       3363.       3364.       3364.    
        3364.       3363.       3363.       3363.       3363.       3363.       3363.       3363.       3363.       3363.    
        3363.       3364.       3364.       3364.       3364.       3364.       3364.       3364.       3364.       3364.    
        3364.       3364.       3364.       3364.       3364.       3364.       3365.       3365.       3365.       3365.    
        3365.       3365.       3365.       3365.       3365.       3365.       3365.       3365.       3365.       3365.    
        3365.       3366.       3366.       3366.       3366.       3366.       3366.       3366.       3366.       3366.    
        3367.       3367.       3367.       3368.       3368.       3368.       3368.       3368.       3368.       3368.    
        3368.       3368.       3368.       3367.       3367.       3367.       3368.       3368.       3368.       3369.    
        3369.       3369.       3369.       3369.       3369.       3369.       3369.       3369.       3369.       3369.    
        3369.       3369.       3369.       3369.       3369.       3369.       3369.       3369.       3369.       3369.    
        3370.       3370.       3370.       3371.       3371.       3372.       3372.       3372.       3372.       3373.    
        3373.       3373.       3374.       3375.       3375.       3376.       3376.       3376.       3376.       3375.    
        3375.       3375.       3375.       3375.       3376.       3376.    
  39    3363.       3361.       3359.       3359.       3359.       3359.       3358.       3357.       3357.       3357.    
        3356.       3356.       3358.       3358.       3358.       3358.       3359.       3359.       3359.       3358.    
        3358.       3358.       3358.       3357.       3357.       3357.       3358.       3358.       3358.       3359.    
        3359.       3359.       3359.       3359.       3359.       3359.       3359.       3359.       3360.       3360.    
        3360.       3361.       3361.       3361.       3360.       3360.       3360.       3361.       3361.       3361.    
        3361.       3361.       3361.       3362.       3362.       3362.       3362.       3362.       3362.       3362.    
        3362.       3362.       3363.       3363.       3363.       3363.       3363.       3363.       3364.       3364.    
        3364.       3363.       3363.       3363.       3363.       3363.       3363.       3363.       3363.       3363.    
        3363.       3364.       3364.       3364.       3364.       3364.       3364.       3364.       3364.       3364.    
        3364.       3364.       3364.       3364.       3364.       3364.       3365.       3365.       3365.       3365.    
        3365.       3365.       3365.       3365.       3365.       3365.       3365.       3365.       3365.       3365.    
        3365.       3366.       3366.       3366.       3366.       3366.       3366.       3366.       3366.       3366.    
        3367.       3367.       3367.       3368.       3368.       3368.       3368.       3368.       3368.       3368.    
        3368.       3368.       3368.       3367.       3367.       3367.       3368.       3368.       3368.       3369.    
        3369.       3369.       3369.       3369.       3369.       3369.       3369.       3369.       3369.       3369.    
        3369.       3369.       3369.       3369.       3369.       3369.       3369.       3369.       3369.       3369.    
        3370.       3370.       3370.       3371.       3371.       3372.       3372.       3372.       3372.       3373.    
        3373.       3373.       3374.       3375.       3375.       3376.       3376.       3376.       3376.       3375.    
        3375.       3375.       3375.       3375.       3376.       3376.    
  40    3365.       3364.       3361.       3359.       3359.       3359.       3359.       3359.       3357.       3357.    
        3358.       3358.       3357.       3358.       3358.       3358.       3358.       3358.       3358.       3358.    
        3358.       3358.       3358.       3357.       3357.       3357.       3357.       3357.       3357.       3358.    
        3358.       3358.       3358.       3358.       3358.       3360.       3360.       3360.       3360.       3360.    
        3360.       3361.       3361.       3361.       3360.       3360.       3360.       3360.       3360.       3360.    
        3360.       3360.       3360.       3361.       3361.       3361.       3362.       3362.       3362.       3362.    
        3362.       3362.       3362.       3362.       3362.       3362.       3362.       3362.       3362.       3362.    
        3362.       3362.       3362.       3362.       3362.       3362.       3362.       3362.       3363.       3363.    
        3363.       3363.       3363.       3363.       3363.       3363.       3363.       3363.       3363.       3363.    
        3364.       3364.       3364.       3364.       3364.       3364.       3364.       3364.       3364.       3364.    
        3364.       3364.       3365.       3365.       3365.       3365.       3365.       3365.       3365.       3365.    
        3365.       3365.       3365.       3365.       3365.       3365.       3365.       3365.       3365.       3365.    
        3366.       3366.       3366.       3366.       3366.       3366.       3367.       3367.       3367.       3367.    
        3367.       3367.       3367.       3367.       3367.       3367.       3367.       3367.       3367.       3368.    
        3368.       3368.       3369.       3369.       3369.       3369.       3369.       3369.       3369.       3369.    
        3369.       3370.       3370.       3370.       3370.       3370.       3370.       3370.       3370.       3370.    
        3371.       3371.       3371.       3372.       3372.       3372.       3372.       3372.       3373.       3374.    
        3373.       3373.       3373.       3374.       3374.       3375.       3375.       3376.       3376.       3375.    
        3374.       3375.       3375.       3375.       3376.       3376.    
  41    3365.       3364.       3361.       3359.       3359.       3359.       3359.       3359.       3357.       3357.    
        3358.       3358.       3357.       3358.       3358.       3358.       3358.       3358.       3358.       3358.    
        3358.       3358.       3358.       3357.       3357.       3357.       3357.       3357.       3357.       3358.    
        3358.       3358.       3358.       3358.       3358.       3360.       3360.       3360.       3360.       3360.    
        3360.       3361.       3361.       3361.       3360.       3360.       3360.       3360.       3360.       3360.    
        3360.       3360.       3360.       3361.       3361.       3361.       3362.       3362.       3362.       3362.    
        3362.       3362.       3362.       3362.       3362.       3362.       3362.       3362.       3362.       3362.    
        3362.       3362.       3362.       3362.       3362.       3362.       3362.       3362.       3363.       3363.    
        3363.       3363.       3363.       3363.       3363.       3363.       3363.       3363.       3363.       3363.    
        3364.       3364.       3364.       3364.       3364.       3364.       3364.       3364.       3364.       3364.    
        3364.       3364.       3365.       3365.       3365.       3365.       3365.       3365.       3365.       3365.    
        3365.       3365.       3365.       3365.       3365.       3365.       3365.       3365.       3365.       3365.    
        3366.       3366.       3366.       3366.       3366.       3366.       3367.       3367.       3367.       3367.    
        3367.       3367.       3367.       3367.       3367.       3367.       3367.       3367.       3367.       3368.    
        3368.       3368.       3369.       3369.       3369.       3369.       3369.       3369.       3369.       3369.    
        3369.       3370.       3370.       3370.       3370.       3370.       3370.       3370.       3370.       3370.    
        3371.       3371.       3371.       3372.       3372.       3372.       3372.       3372.       3373.       3374.    
        3373.       3373.       3373.       3374.       3374.       3375.       3375.       3376.       3376.       3375.    
        3374.       3375.       3375.       3375.       3376.       3376.    
  42    3365.       3364.       3361.       3359.       3359.       3359.       3359.       3359.       3357.       3357.    
        3358.       3358.       3357.       3358.       3358.       3358.       3358.       3358.       3358.       3358.    
        3358.       3358.       3358.       3357.       3357.       3357.       3357.       3357.       3357.       3358.    
        3358.       3358.       3358.       3358.       3358.       3360.       3360.       3360.       3360.       3360.    
        3360.       3361.       3361.       3361.       3360.       3360.       3360.       3360.       3360.       3360.    
        3360.       3360.       3360.       3361.       3361.       3361.       3362.       3362.       3362.       3362.    
        3362.       3362.       3362.       3362.       3362.       3362.       3362.       3362.       3362.       3362.    
        3362.       3362.       3362.       3362.       3362.       3362.       3362.       3362.       3363.       3363.    
        3363.       3363.       3363.       3363.       3363.       3363.       3363.       3363.       3363.       3363.    
        3364.       3364.       3364.       3364.       3364.       3364.       3364.       3364.       3364.       3364.    
        3364.       3364.       3365.       3365.       3365.       3365.       3365.       3365.       3365.       3365.    
        3365.       3365.       3365.       3365.       3365.       3365.       3365.       3365.       3365.       3365.    
        3366.       3366.       3366.       3366.       3366.       3366.       3367.       3367.       3367.       3367.    
        3367.       3367.       3367.       3367.       3367.       3367.       3367.       3367.       3367.       3368.    
        3368.       3368.       3369.       3369.       3369.       3369.       3369.       3369.       3369.       3369.    
        3369.       3370.       3370.       3370.       3370.       3370.       3370.       3370.       3370.       3370.    
        3371.       3371.       3371.       3372.       3372.       3372.       3372.       3372.       3373.       3374.    
        3373.       3373.       3373.       3374.       3374.       3375.       3375.       3376.       3376.       3375.    
        3374.       3375.       3375.       3375.       3376.       3376.    
  43    3365.       3364.       3361.       3359.       3359.       3359.       3359.       3359.       3357.       3357.    
        3358.       3358.       3357.       3358.       3358.       3358.       3358.       3358.       3358.       3358.    
        3358.       3358.       3358.       3357.       3357.       3357.       3357.       3357.       3357.       3358.    
        3358.       3358.       3358.       3358.       3358.       3360.       3360.       3360.       3360.       3360.    
        3360.       3361.       3361.       3361.       3360.       3360.       3360.       3360.       3360.       3360.    
        3360.       3360.       3360.       3361.       3361.       3361.       3362.       3362.       3362.       3362.    
        3362.       3362.       3362.       3362.       3362.       3362.       3362.       3362.       3362.       3362.    
        3362.       3362.       3362.       3362.       3362.       3362.       3362.       3362.       3363.       3363.    
        3363.       3363.       3363.       3363.       3363.       3363.       3363.       3363.       3363.       3363.    
        3364.       3364.       3364.       3364.       3364.       3364.       3364.       3364.       3364.       3364.    
        3364.       3364.       3365.       3365.       3365.       3365.       3365.       3365.       3365.       3365.    
        3365.       3365.       3365.       3365.       3365.       3365.       3365.       3365.       3365.       3365.    
        3366.       3366.       3366.       3366.       3366.       3366.       3367.       3367.       3367.       3367.    
        3367.       3367.       3367.       3367.       3367.       3367.       3367.       3367.       3367.       3368.    
        3368.       3368.       3369.       3369.       3369.       3369.       3369.       3369.       3369.       3369.    
        3369.       3370.       3370.       3370.       3370.       3370.       3370.       3370.       3370.       3370.    
        3371.       3371.       3371.       3372.       3372.       3372.       3372.       3372.       3373.       3374.    
        3373.       3373.       3373.       3374.       3374.       3375.       3375.       3376.       3376.       3375.    
        3374.       3375.       3375.       3375.       3376.       3376.    
  44    3367.       3364.       3362.       3359.       3359.       3359.       3360.       3361.       3359.       3359.    
        3358.       3357.       3359.       3358.       3359.       3359.       3358.       3358.       3358.       3358.    
        3358.       3358.       3358.       3358.       3358.       3358.       3358.       3358.       3358.       3358.    
        3358.       3358.       3359.       3359.       3359.       3360.       3360.       3360.       3360.       3360.    
        3360.       3360.       3360.       3360.       3361.       3361.       3361.       3361.       3361.       3361.    
        3361.       3361.       3361.       3362.       3362.       3362.       3362.       3362.       3362.       3363.    
        3363.       3363.       3363.       3363.       3363.       3363.       3363.       3363.       3363.       3363.    
        3363.       3363.       3363.       3363.       3363.       3363.       3363.       3363.       3363.       3363.    
        3363.       3363.       3363.       3363.       3363.       3363.       3363.       3363.       3363.       3363.    
        3364.       3364.       3364.       3364.       3364.       3364.       3365.       3365.       3365.       3365.    
        3365.       3365.       3365.       3365.       3365.       3365.       3365.       3365.       3364.       3364.    
        3364.       3364.       3364.       3364.       3364.       3364.       3364.       3364.       3364.       3364.    
        3364.       3364.       3364.       3364.       3364.       3364.       3365.       3365.       3365.       3366.    
        3366.       3366.       3366.       3366.       3366.       3366.       3366.       3366.       3366.       3366.    
        3366.       3366.       3367.       3367.       3367.       3369.       3369.       3369.       3369.       3369.    
        3369.       3370.       3370.       3370.       3370.       3370.       3370.       3371.       3371.       3371.    
        3372.       3372.       3372.       3372.       3372.       3372.       3372.       3372.       3372.       3374.    
        3374.       3374.       3375.       3376.       3376.       3375.       3375.       3375.       3375.       3375.    
        3375.       3375.       3375.       3375.       3376.       3376.    
  45    3367.       3364.       3362.       3359.       3359.       3359.       3360.       3361.       3359.       3359.    
        3358.       3357.       3359.       3358.       3359.       3359.       3358.       3358.       3358.       3358.    
        3358.       3358.       3358.       3358.       3358.       3358.       3358.       3358.       3358.       3358.    
        3358.       3358.       3359.       3359.       3359.       3360.       3360.       3360.       3360.       3360.    
        3360.       3360.       3360.       3360.       3361.       3361.       3361.       3361.       3361.       3361.    
        3361.       3361.       3361.       3362.       3362.       3362.       3362.       3362.       3362.       3363.    
        3363.       3363.       3363.       3363.       3363.       3363.       3363.       3363.       3363.       3363.    
        3363.       3363.       3363.       3363.       3363.       3363.       3363.       3363.       3363.       3363.    
        3363.       3363.       3363.       3363.       3363.       3363.       3363.       3363.       3363.       3363.    
        3364.       3364.       3364.       3364.       3364.       3364.       3365.       3365.       3365.       3365.    
        3365.       3365.       3365.       3365.       3365.       3365.       3365.       3365.       3364.       3364.    
        3364.       3364.       3364.       3364.       3364.       3364.       3364.       3364.       3364.       3364.    
        3364.       3364.       3364.       3364.       3364.       3364.       3365.       3365.       3365.       3366.    
        3366.       3366.       3366.       3366.       3366.       3366.       3366.       3366.       3366.       3366.    
        3366.       3366.       3367.       3367.       3367.       3369.       3369.       3369.       3369.       3369.    
        3369.       3370.       3370.       3370.       3370.       3370.       3370.       3371.       3371.       3371.    
        3372.       3372.       3372.       3372.       3372.       3372.       3372.       3372.       3372.       3374.    
        3374.       3374.       3375.       3376.       3376.       3375.       3375.       3375.       3375.       3375.    
        3375.       3375.       3375.       3375.       3376.       3376.    
  46    3367.       3364.       3362.       3359.       3359.       3359.       3360.       3361.       3359.       3359.    
        3358.       3357.       3359.       3358.       3359.       3359.       3358.       3358.       3358.       3358.    
        3358.       3358.       3358.       3358.       3358.       3358.       3358.       3358.       3358.       3358.    
        3358.       3358.       3359.       3359.       3359.       3360.       3360.       3360.       3360.       3360.    
        3360.       3360.       3360.       3360.       3361.       3361.       3361.       3361.       3361.       3361.    
        3361.       3361.       3361.       3362.       3362.       3362.       3362.       3362.       3362.       3363.    
        3363.       3363.       3363.       3363.       3363.       3363.       3363.       3363.       3363.       3363.    
        3363.       3363.       3363.       3363.       3363.       3363.       3363.       3363.       3363.       3363.    
        3363.       3363.       3363.       3363.       3363.       3363.       3363.       3363.       3363.       3363.    
        3364.       3364.       3364.       3364.       3364.       3364.       3365.       3365.       3365.       3365.    
        3365.       3365.       3365.       3365.       3365.       3365.       3365.       3365.       3364.       3364.    
        3364.       3364.       3364.       3364.       3364.       3364.       3364.       3364.       3364.       3364.    
        3364.       3364.       3364.       3364.       3364.       3364.       3365.       3365.       3365.       3366.    
        3366.       3366.       3366.       3366.       3366.       3366.       3366.       3366.       3366.       3366.    
        3366.       3366.       3367.       3367.       3367.       3369.       3369.       3369.       3369.       3369.    
        3369.       3370.       3370.       3370.       3370.       3370.       3370.       3371.       3371.       3371.    
        3372.       3372.       3372.       3372.       3372.       3372.       3372.       3372.       3372.       3374.    
        3374.       3374.       3375.       3376.       3376.       3375.       3375.       3375.       3375.       3375.    
        3375.       3375.       3375.       3375.       3376.       3376.    
  47    3367.       3365.       3363.       3361.       3361.       3360.       3361.       3362.       3361.       3361.    
        3359.       3358.       3358.       3358.       3359.       3359.       3359.       3359.       3359.       3358.    
        3358.       3358.       3358.       3359.       3359.       3359.       3359.       3359.       3359.       3359.    
        3359.       3359.       3360.       3360.       3360.       3360.       3360.       3360.       3360.       3360.    
        3360.       3360.       3360.       3360.       3360.       3360.       3360.       3360.       3360.       3360.    
        3361.       3361.       3361.       3361.       3361.       3361.       3361.       3361.       3361.       3362.    
        3362.       3362.       3362.       3362.       3362.       3362.       3362.       3362.       3362.       3362.    
        3362.       3362.       3362.       3362.       3362.       3362.       3362.       3362.       3363.       3363.    
        3363.       3363.       3363.       3363.       3364.       3364.       3364.       3364.       3364.       3364.    
        3364.       3364.       3364.       3364.       3364.       3364.       3364.       3364.       3364.       3365.    
        3365.       3365.       3366.       3366.       3366.       3366.       3366.       3366.       3365.       3365.    
        3365.       3365.       3365.       3365.       3365.       3365.       3365.       3365.       3365.       3365.    
        3365.       3365.       3365.       3366.       3366.       3366.       3366.       3366.       3366.       3367.    
        3367.       3367.       3367.       3367.       3367.       3367.       3367.       3367.       3367.       3367.    
        3367.       3367.       3368.       3368.       3368.       3369.       3369.       3369.       3370.       3370.    
        3370.       3370.       3370.       3370.       3370.       3370.       3370.       3371.       3371.       3371.    
        3371.       3371.       3371.       3371.       3371.       3372.       3372.       3372.       3373.       3373.    
        3374.       3374.       3375.       3376.       3376.       3375.       3375.       3375.       3374.       3375.    
        3375.       3375.       3375.       3375.       3375.       3375.    
  48    3367.       3365.       3363.       3361.       3361.       3360.       3361.       3362.       3361.       3361.    
        3359.       3358.       3358.       3358.       3359.       3359.       3359.       3359.       3359.       3358.    
        3358.       3358.       3358.       3359.       3359.       3359.       3359.       3359.       3359.       3359.    
        3359.       3359.       3360.       3360.       3360.       3360.       3360.       3360.       3360.       3360.    
        3360.       3360.       3360.       3360.       3360.       3360.       3360.       3360.       3360.       3360.    
        3361.       3361.       3361.       3361.       3361.       3361.       3361.       3361.       3361.       3362.    
        3362.       3362.       3362.       3362.       3362.       3362.       3362.       3362.       3362.       3362.    
        3362.       3362.       3362.       3362.       3362.       3362.       3362.       3362.       3363.       3363.    
        3363.       3363.       3363.       3363.       3364.       3364.       3364.       3364.       3364.       3364.    
        3364.       3364.       3364.       3364.       3364.       3364.       3364.       3364.       3364.       3365.    
        3365.       3365.       3366.       3366.       3366.       3366.       3366.       3366.       3365.       3365.    
        3365.       3365.       3365.       3365.       3365.       3365.       3365.       3365.       3365.       3365.    
        3365.       3365.       3365.       3366.       3366.       3366.       3366.       3366.       3366.       3367.    
        3367.       3367.       3367.       3367.       3367.       3367.       3367.       3367.       3367.       3367.    
        3367.       3367.       3368.       3368.       3368.       3369.       3369.       3369.       3370.       3370.    
        3370.       3370.       3370.       3370.       3370.       3370.       3370.       3371.       3371.       3371.    
        3371.       3371.       3371.       3371.       3371.       3372.       3372.       3372.       3373.       3373.    
        3374.       3374.       3375.       3376.       3376.       3375.       3375.       3375.       3374.       3375.    
        3375.       3375.       3375.       3375.       3375.       3375.    
  49    3367.       3365.       3363.       3361.       3361.       3360.       3361.       3362.       3361.       3361.    
        3359.       3358.       3358.       3358.       3359.       3359.       3359.       3359.       3359.       3358.    
        3358.       3358.       3358.       3359.       3359.       3359.       3359.       3359.       3359.       3359.    
        3359.       3359.       3360.       3360.       3360.       3360.       3360.       3360.       3360.       3360.    
        3360.       3360.       3360.       3360.       3360.       3360.       3360.       3360.       3360.       3360.    
        3361.       3361.       3361.       3361.       3361.       3361.       3361.       3361.       3361.       3362.    
        3362.       3362.       3362.       3362.       3362.       3362.       3362.       3362.       3362.       3362.    
        3362.       3362.       3362.       3362.       3362.       3362.       3362.       3362.       3363.       3363.    
        3363.       3363.       3363.       3363.       3364.       3364.       3364.       3364.       3364.       3364.    
        3364.       3364.       3364.       3364.       3364.       3364.       3364.       3364.       3364.       3365.    
        3365.       3365.       3366.       3366.       3366.       3366.       3366.       3366.       3365.       3365.    
        3365.       3365.       3365.       3365.       3365.       3365.       3365.       3365.       3365.       3365.    
        3365.       3365.       3365.       3366.       3366.       3366.       3366.       3366.       3366.       3367.    
        3367.       3367.       3367.       3367.       3367.       3367.       3367.       3367.       3367.       3367.    
        3367.       3367.       3368.       3368.       3368.       3369.       3369.       3369.       3370.       3370.    
        3370.       3370.       3370.       3370.       3370.       3370.       3370.       3371.       3371.       3371.    
        3371.       3371.       3371.       3371.       3371.       3372.       3372.       3372.       3373.       3373.    
        3374.       3374.       3375.       3376.       3376.       3375.       3375.       3375.       3374.       3375.    
        3375.       3375.       3375.       3375.       3375.       3375.    
  50    3368.       3366.       3364.       3362.       3362.       3361.       3360.       3361.       3358.       3358.    
        3358.       3359.       3358.       3358.       3358.       3358.       3358.       3358.       3358.       3358.    
        3358.       3358.       3358.       3359.       3359.       3359.       3358.       3358.       3358.       3358.    
        3358.       3358.       3360.       3360.       3360.       3361.       3361.       3361.       3361.       3361.    
        3361.       3361.       3361.       3361.       3361.       3361.       3361.       3361.       3361.       3361.    
        3362.       3362.       3362.       3362.       3362.       3362.       3362.       3362.       3362.       3362.    
        3362.       3362.       3362.       3362.       3362.       3363.       3363.       3363.       3363.       3363.    
        3363.       3363.       3363.       3363.       3363.       3364.       3364.       3364.       3364.       3364.    
        3364.       3364.       3364.       3364.       3364.       3364.       3364.       3364.       3364.       3364.    
        3364.       3364.       3364.       3364.       3364.       3364.       3364.       3364.       3364.       3364.    
        3364.       3364.       3365.       3365.       3365.       3365.       3365.       3365.       3366.       3366.    
        3366.       3366.       3366.       3366.       3366.       3366.       3366.       3366.       3366.       3366.    
        3367.       3367.       3367.       3367.       3367.       3367.       3366.       3366.       3366.       3367.    
        3367.       3367.       3367.       3367.       3367.       3367.       3367.       3367.       3367.       3367.    
        3367.       3367.       3368.       3368.       3368.       3370.       3370.       3370.       3370.       3370.    
        3370.       3370.       3370.       3370.       3370.       3370.       3370.       3371.       3371.       3371.    
        3371.       3371.       3371.       3371.       3371.       3372.       3372.       3372.       3372.       3372.    
        3373.       3373.       3374.       3374.       3375.       3375.       3375.       3374.       3374.       3374.    
        3374.       3375.       3375.       3374.       3375.       3375.    
  51    3368.       3366.       3364.       3362.       3362.       3361.       3360.       3361.       3358.       3358.    
        3358.       3359.       3358.       3358.       3358.       3358.       3358.       3358.       3358.       3358.    
        3358.       3358.       3358.       3359.       3359.       3359.       3358.       3358.       3358.       3358.    
        3358.       3358.       3360.       3360.       3360.       3361.       3361.       3361.       3361.       3361.    
        3361.       3361.       3361.       3361.       3361.       3361.       3361.       3361.       3361.       3361.    
        3362.       3362.       3362.       3362.       3362.       3362.       3362.       3362.       3362.       3362.    
        3362.       3362.       3362.       3362.       3362.       3363.       3363.       3363.       3363.       3363.    
        3363.       3363.       3363.       3363.       3363.       3364.       3364.       3364.       3364.       3364.    
        3364.       3364.       3364.       3364.       3364.       3364.       3364.       3364.       3364.       3364.    
        3364.       3364.       3364.       3364.       3364.       3364.       3364.       3364.       3364.       3364.    
        3364.       3364.       3365.       3365.       3365.       3365.       3365.       3365.       3366.       3366.    
        3366.       3366.       3366.       3366.       3366.       3366.       3366.       3366.       3366.       3366.    
        3367.       3367.       3367.       3367.       3367.       3367.       3366.       3366.       3366.       3367.    
        3367.       3367.       3367.       3367.       3367.       3367.       3367.       3367.       3367.       3367.    
        3367.       3367.       3368.       3368.       3368.       3370.       3370.       3370.       3370.       3370.    
        3370.       3370.       3370.       3370.       3370.       3370.       3370.       3371.       3371.       3371.    
        3371.       3371.       3371.       3371.       3371.       3372.       3372.       3372.       3372.       3372.    
        3373.       3373.       3374.       3374.       3375.       3375.       3375.       3374.       3374.       3374.    
        3374.       3375.       3375.       3374.       3375.       3375.    
  52    3368.       3366.       3364.       3362.       3362.       3361.       3360.       3361.       3358.       3358.    
        3358.       3359.       3358.       3358.       3358.       3358.       3358.       3358.       3358.       3358.    
        3358.       3358.       3358.       3359.       3359.       3359.       3358.       3358.       3358.       3358.    
        3358.       3358.       3360.       3360.       3360.       3361.       3361.       3361.       3361.       3361.    
        3361.       3361.       3361.       3361.       3361.       3361.       3361.       3361.       3361.       3361.    
        3362.       3362.       3362.       3362.       3362.       3362.       3362.       3362.       3362.       3362.    
        3362.       3362.       3362.       3362.       3362.       3363.       3363.       3363.       3363.       3363.    
        3363.       3363.       3363.       3363.       3363.       3364.       3364.       3364.       3364.       3364.    
        3364.       3364.       3364.       3364.       3364.       3364.       3364.       3364.       3364.       3364.    
        3364.       3364.       3364.       3364.       3364.       3364.       3364.       3364.       3364.       3364.    
        3364.       3364.       3365.       3365.       3365.       3365.       3365.       3365.       3366.       3366.    
        3366.       3366.       3366.       3366.       3366.       3366.       3366.       3366.       3366.       3366.    
        3367.       3367.       3367.       3367.       3367.       3367.       3366.       3366.       3366.       3367.    
        3367.       3367.       3367.       3367.       3367.       3367.       3367.       3367.       3367.       3367.    
        3367.       3367.       3368.       3368.       3368.       3370.       3370.       3370.       3370.       3370.    
        3370.       3370.       3370.       3370.       3370.       3370.       3370.       3371.       3371.       3371.    
        3371.       3371.       3371.       3371.       3371.       3372.       3372.       3372.       3372.       3372.    
        3373.       3373.       3374.       3374.       3375.       3375.       3375.       3374.       3374.       3374.    
        3374.       3375.       3375.       3374.       3375.       3375.    
  53    3368.       3366.       3365.       3363.       3363.       3362.       3361.       3360.       3358.       3358.    
        3357.       3358.       3357.       3358.       3358.       3358.       3358.       3358.       3358.       3358.    
        3358.       3358.       3358.       3359.       3359.       3359.       3359.       3359.       3359.       3359.    
        3359.       3359.       3360.       3360.       3360.       3360.       3360.       3360.       3360.       3360.    
        3360.       3360.       3360.       3360.       3360.       3360.       3360.       3361.       3361.       3361.    
        3362.       3362.       3362.       3362.       3362.       3362.       3362.       3362.       3362.       3362.    
        3362.       3362.       3363.       3363.       3363.       3363.       3363.       3363.       3363.       3363.    
        3363.       3364.       3364.       3364.       3364.       3364.       3364.       3364.       3364.       3364.    
        3364.       3364.       3364.       3364.       3364.       3364.       3364.       3364.       3364.       3364.    
        3364.       3364.       3364.       3364.       3364.       3364.       3364.       3364.       3364.       3365.    
        3365.       3365.       3366.       3366.       3366.       3366.       3366.       3366.       3366.       3366.    
        3366.       3366.       3366.       3366.       3366.       3366.       3366.       3366.       3366.       3366.    
        3366.       3366.       3366.       3367.       3367.       3367.       3366.       3366.       3366.       3366.    
        3366.       3366.       3366.       3367.       3367.       3367.       3368.       3368.       3368.       3369.    
        3369.       3369.       3369.       3369.       3369.       3370.       3370.       3370.       3371.       3371.    
        3371.       3370.       3370.       3370.       3370.       3370.       3370.       3371.       3371.       3371.    
        3371.       3371.       3371.       3371.       3371.       3371.       3371.       3371.       3371.       3372.    
        3373.       3373.       3373.       3374.       3375.       3374.       3374.       3374.       3374.       3374.    
        3375.       3375.       3375.       3376.       3376.       3376.    
  54    3368.       3366.       3365.       3363.       3363.       3362.       3361.       3360.       3358.       3358.    
        3357.       3358.       3357.       3358.       3358.       3358.       3358.       3358.       3358.       3358.    
        3358.       3358.       3358.       3359.       3359.       3359.       3359.       3359.       3359.       3359.    
        3359.       3359.       3360.       3360.       3360.       3360.       3360.       3360.       3360.       3360.    
        3360.       3360.       3360.       3360.       3360.       3360.       3360.       3361.       3361.       3361.    
        3362.       3362.       3362.       3362.       3362.       3362.       3362.       3362.       3362.       3362.    
        3362.       3362.       3363.       3363.       3363.       3363.       3363.       3363.       3363.       3363.    
        3363.       3364.       3364.       3364.       3364.       3364.       3364.       3364.       3364.       3364.    
        3364.       3364.       3364.       3364.       3364.       3364.       3364.       3364.       3364.       3364.    
        3364.       3364.       3364.       3364.       3364.       3364.       3364.       3364.       3364.       3365.    
        3365.       3365.       3366.       3366.       3366.       3366.       3366.       3366.       3366.       3366.    
        3366.       3366.       3366.       3366.       3366.       3366.       3366.       3366.       3366.       3366.    
        3366.       3366.       3366.       3367.       3367.       3367.       3366.       3366.       3366.       3366.    
        3366.       3366.       3366.       3367.       3367.       3367.       3368.       3368.       3368.       3369.    
        3369.       3369.       3369.       3369.       3369.       3370.       3370.       3370.       3371.       3371.    
        3371.       3370.       3370.       3370.       3370.       3370.       3370.       3371.       3371.       3371.    
        3371.       3371.       3371.       3371.       3371.       3371.       3371.       3371.       3371.       3372.    
        3373.       3373.       3373.       3374.       3375.       3374.       3374.       3374.       3374.       3374.    
        3375.       3375.       3375.       3376.       3376.       3376.    
  55    3368.       3366.       3365.       3363.       3363.       3362.       3361.       3360.       3358.       3358.    
        3357.       3358.       3357.       3358.       3358.       3358.       3358.       3358.       3358.       3358.    
        3358.       3358.       3358.       3359.       3359.       3359.       3359.       3359.       3359.       3359.    
        3359.       3359.       3360.       3360.       3360.       3360.       3360.       3360.       3360.       3360.    
        3360.       3360.       3360.       3360.       3360.       3360.       3360.       3361.       3361.       3361.    
        3362.       3362.       3362.       3362.       3362.       3362.       3362.       3362.       3362.       3362.    
        3362.       3362.       3363.       3363.       3363.       3363.       3363.       3363.       3363.       3363.    
        3363.       3364.       3364.       3364.       3364.       3364.       3364.       3364.       3364.       3364.    
        3364.       3364.       3364.       3364.       3364.       3364.       3364.       3364.       3364.       3364.    
        3364.       3364.       3364.       3364.       3364.       3364.       3364.       3364.       3364.       3365.    
        3365.       3365.       3366.       3366.       3366.       3366.       3366.       3366.       3366.       3366.    
        3366.       3366.       3366.       3366.       3366.       3366.       3366.       3366.       3366.       3366.    
        3366.       3366.       3366.       3367.       3367.       3367.       3366.       3366.       3366.       3366.    
        3366.       3366.       3366.       3367.       3367.       3367.       3368.       3368.       3368.       3369.    
        3369.       3369.       3369.       3369.       3369.       3370.       3370.       3370.       3371.       3371.    
        3371.       3370.       3370.       3370.       3370.       3370.       3370.       3371.       3371.       3371.    
        3371.       3371.       3371.       3371.       3371.       3371.       3371.       3371.       3371.       3372.    
        3373.       3373.       3373.       3374.       3375.       3374.       3374.       3374.       3374.       3374.    
        3375.       3375.       3375.       3376.       3376.       3376.    
  56    3368.       3367.       3365.       3364.       3364.       3363.       3363.       3362.       3360.       3360.    
        3359.       3358.       3357.       3358.       3359.       3359.       3358.       3358.       3358.       3358.    
        3358.       3358.       3358.       3358.       3358.       3358.       3358.       3358.       3358.       3359.    
        3359.       3359.       3360.       3360.       3360.       3360.       3360.       3360.       3360.       3360.    
        3360.       3360.       3360.       3360.       3360.       3360.       3360.       3361.       3361.       3361.    
        3361.       3361.       3361.       3361.       3361.       3361.       3362.       3362.       3362.       3363.    
        3363.       3363.       3363.       3363.       3363.       3363.       3363.       3363.       3363.       3363.    
        3363.       3363.       3363.       3363.       3363.       3363.       3363.       3363.       3364.       3364.    
        3364.       3364.       3364.       3364.       3365.       3365.       3365.       3365.       3365.       3365.    
        3365.       3365.       3365.       3365.       3365.       3365.       3364.       3364.       3364.       3364.    
        3364.       3364.       3366.       3366.       3366.       3366.       3366.       3366.       3366.       3366.    
        3366.       3366.       3366.       3366.       3365.       3365.       3365.       3366.       3366.       3366.    
        3366.       3366.       3366.       3367.       3367.       3367.       3368.       3368.       3368.       3368.    
        3368.       3368.       3368.       3369.       3369.       3369.       3369.       3369.       3369.       3369.    
        3369.       3369.       3370.       3370.       3370.       3370.       3370.       3370.       3370.       3370.    
        3370.       3371.       3371.       3371.       3371.       3371.       3371.       3371.       3371.       3371.    
        3371.       3371.       3371.       3371.       3371.       3371.       3371.       3370.       3371.       3373.    
        3374.       3374.       3375.       3375.       3376.       3376.       3376.       3375.       3375.       3375.    
        3375.       3375.       3375.       3376.       3376.       3378.    
  57    3368.       3367.       3365.       3364.       3364.       3363.       3363.       3362.       3360.       3360.    
        3359.       3358.       3357.       3358.       3359.       3359.       3358.       3358.       3358.       3358.    
        3358.       3358.       3358.       3358.       3358.       3358.       3358.       3358.       3358.       3359.    
        3359.       3359.       3360.       3360.       3360.       3360.       3360.       3360.       3360.       3360.    
        3360.       3360.       3360.       3360.       3360.       3360.       3360.       3361.       3361.       3361.    
        3361.       3361.       3361.       3361.       3361.       3361.       3362.       3362.       3362.       3363.    
        3363.       3363.       3363.       3363.       3363.       3363.       3363.       3363.       3363.       3363.    
        3363.       3363.       3363.       3363.       3363.       3363.       3363.       3363.       3364.       3364.    
        3364.       3364.       3364.       3364.       3365.       3365.       3365.       3365.       3365.       3365.    
        3365.       3365.       3365.       3365.       3365.       3365.       3364.       3364.       3364.       3364.    
        3364.       3364.       3366.       3366.       3366.       3366.       3366.       3366.       3366.       3366.    
        3366.       3366.       3366.       3366.       3365.       3365.       3365.       3366.       3366.       3366.    
        3366.       3366.       3366.       3367.       3367.       3367.       3368.       3368.       3368.       3368.    
        3368.       3368.       3368.       3369.       3369.       3369.       3369.       3369.       3369.       3369.    
        3369.       3369.       3370.       3370.       3370.       3370.       3370.       3370.       3370.       3370.    
        3370.       3371.       3371.       3371.       3371.       3371.       3371.       3371.       3371.       3371.    
        3371.       3371.       3371.       3371.       3371.       3371.       3371.       3370.       3371.       3373.    
        3374.       3374.       3375.       3375.       3376.       3376.       3376.       3375.       3375.       3375.    
        3375.       3375.       3375.       3376.       3376.       3378.    
  58    3368.       3367.       3365.       3364.       3364.       3363.       3363.       3362.       3360.       3360.    
        3359.       3358.       3357.       3358.       3359.       3359.       3358.       3358.       3358.       3358.    
        3358.       3358.       3358.       3358.       3358.       3358.       3358.       3358.       3358.       3359.    
        3359.       3359.       3360.       3360.       3360.       3360.       3360.       3360.       3360.       3360.    
        3360.       3360.       3360.       3360.       3360.       3360.       3360.       3361.       3361.       3361.    
        3361.       3361.       3361.       3361.       3361.       3361.       3362.       3362.       3362.       3363.    
        3363.       3363.       3363.       3363.       3363.       3363.       3363.       3363.       3363.       3363.    
        3363.       3363.       3363.       3363.       3363.       3363.       3363.       3363.       3364.       3364.    
        3364.       3364.       3364.       3364.       3365.       3365.       3365.       3365.       3365.       3365.    
        3365.       3365.       3365.       3365.       3365.       3365.       3364.       3364.       3364.       3364.    
        3364.       3364.       3366.       3366.       3366.       3366.       3366.       3366.       3366.       3366.    
        3366.       3366.       3366.       3366.       3365.       3365.       3365.       3366.       3366.       3366.    
        3366.       3366.       3366.       3367.       3367.       3367.       3368.       3368.       3368.       3368.    
        3368.       3368.       3368.       3369.       3369.       3369.       3369.       3369.       3369.       3369.    
        3369.       3369.       3370.       3370.       3370.       3370.       3370.       3370.       3370.       3370.    
        3370.       3371.       3371.       3371.       3371.       3371.       3371.       3371.       3371.       3371.    
        3371.       3371.       3371.       3371.       3371.       3371.       3371.       3370.       3371.       3373.    
        3374.       3374.       3375.       3375.       3376.       3376.       3376.       3375.       3375.       3375.    
        3375.       3375.       3375.       3376.       3376.       3378.    
  59    3369.       3367.       3365.       3366.       3366.       3366.       3365.       3363.       3362.       3362.    
        3361.       3360.       3358.       3358.       3360.       3360.       3359.       3359.       3359.       3359.    
        3359.       3359.       3359.       3359.       3359.       3359.       3359.       3359.       3359.       3359.    
        3359.       3359.       3360.       3360.       3360.       3359.       3359.       3359.       3359.       3359.    
        3359.       3359.       3359.       3359.       3360.       3360.       3360.       3360.       3360.       3360.    
        3361.       3361.       3361.       3360.       3360.       3360.       3361.       3361.       3361.       3362.    
        3362.       3362.       3362.       3362.       3362.       3362.       3362.       3362.       3363.       3363.    
        3363.       3363.       3363.       3363.       3363.       3363.       3363.       3363.       3363.       3363.    
        3363.       3363.       3363.       3363.       3364.       3364.       3364.       3365.       3365.       3365.    
        3366.       3366.       3366.       3366.       3366.       3366.       3366.       3366.       3366.       3366.    
        3366.       3366.       3366.       3366.       3366.       3366.       3366.       3366.       3366.       3366.    
        3366.       3366.       3366.       3366.       3366.       3366.       3366.       3366.       3366.       3366.    
        3367.       3367.       3367.       3368.       3368.       3368.       3369.       3369.       3369.       3370.    
        3370.       3370.       3370.       3370.       3370.       3370.       3371.       3371.       3371.       3371.    
        3371.       3371.       3371.       3371.       3371.       3371.       3371.       3371.       3371.       3371.    
        3371.       3371.       3371.       3371.       3371.       3371.       3371.       3371.       3371.       3371.    
        3371.       3371.       3371.       3371.       3371.       3371.       3371.       3372.       3373.       3374.    
        3375.       3375.       3375.       3375.       3376.       3376.       3376.       3375.       3375.       3375.    
        3376.       3376.       3376.       3377.       3379.       3381.    
  60    3369.       3367.       3365.       3366.       3366.       3366.       3365.       3363.       3362.       3362.    
        3361.       3360.       3358.       3358.       3360.       3360.       3359.       3359.       3359.       3359.    
        3359.       3359.       3359.       3359.       3359.       3359.       3359.       3359.       3359.       3359.    
        3359.       3359.       3360.       3360.       3360.       3359.       3359.       3359.       3359.       3359.    
        3359.       3359.       3359.       3359.       3360.       3360.       3360.       3360.       3360.       3360.    
        3361.       3361.       3361.       3360.       3360.       3360.       3361.       3361.       3361.       3362.    
        3362.       3362.       3362.       3362.       3362.       3362.       3362.       3362.       3363.       3363.    
        3363.       3363.       3363.       3363.       3363.       3363.       3363.       3363.       3363.       3363.    
        3363.       3363.       3363.       3363.       3364.       3364.       3364.       3365.       3365.       3365.    
        3366.       3366.       3366.       3366.       3366.       3366.       3366.       3366.       3366.       3366.    
        3366.       3366.       3366.       3366.       3366.       3366.       3366.       3366.       3366.       3366.    
        3366.       3366.       3366.       3366.       3366.       3366.       3366.       3366.       3366.       3366.    
        3367.       3367.       3367.       3368.       3368.       3368.       3369.       3369.       3369.       3370.    
        3370.       3370.       3370.       3370.       3370.       3370.       3371.       3371.       3371.       3371.    
        3371.       3371.       3371.       3371.       3371.       3371.       3371.       3371.       3371.       3371.    
        3371.       3371.       3371.       3371.       3371.       3371.       3371.       3371.       3371.       3371.    
        3371.       3371.       3371.       3371.       3371.       3371.       3371.       3372.       3373.       3374.    
        3375.       3375.       3375.       3375.       3376.       3376.       3376.       3375.       3375.       3375.    
        3376.       3376.       3376.       3377.       3379.       3381.    
  61    3369.       3367.       3365.       3366.       3366.       3366.       3365.       3363.       3362.       3362.    
        3361.       3360.       3358.       3358.       3360.       3360.       3359.       3359.       3359.       3359.    
        3359.       3359.       3359.       3359.       3359.       3359.       3359.       3359.       3359.       3359.    
        3359.       3359.       3360.       3360.       3360.       3359.       3359.       3359.       3359.       3359.    
        3359.       3359.       3359.       3359.       3360.       3360.       3360.       3360.       3360.       3360.    
        3361.       3361.       3361.       3360.       3360.       3360.       3361.       3361.       3361.       3362.    
        3362.       3362.       3362.       3362.       3362.       3362.       3362.       3362.       3363.       3363.    
        3363.       3363.       3363.       3363.       3363.       3363.       3363.       3363.       3363.       3363.    
        3363.       3363.       3363.       3363.       3364.       3364.       3364.       3365.       3365.       3365.    
        3366.       3366.       3366.       3366.       3366.       3366.       3366.       3366.       3366.       3366.    
        3366.       3366.       3366.       3366.       3366.       3366.       3366.       3366.       3366.       3366.    
        3366.       3366.       3366.       3366.       3366.       3366.       3366.       3366.       3366.       3366.    
        3367.       3367.       3367.       3368.       3368.       3368.       3369.       3369.       3369.       3370.    
        3370.       3370.       3370.       3370.       3370.       3370.       3371.       3371.       3371.       3371.    
        3371.       3371.       3371.       3371.       3371.       3371.       3371.       3371.       3371.       3371.    
        3371.       3371.       3371.       3371.       3371.       3371.       3371.       3371.       3371.       3371.    
        3371.       3371.       3371.       3371.       3371.       3371.       3371.       3372.       3373.       3374.    
        3375.       3375.       3375.       3375.       3376.       3376.       3376.       3375.       3375.       3375.    
        3376.       3376.       3376.       3377.       3379.       3381.    
  62    3370.       3368.       3367.       3367.       3367.       3367.       3366.       3364.       3363.       3363.    
        3362.       3360.       3359.       3358.       3360.       3360.       3360.       3360.       3360.       3360.    
        3360.       3360.       3360.       3360.       3360.       3360.       3360.       3360.       3360.       3360.    
        3360.       3360.       3360.       3360.       3360.       3360.       3360.       3360.       3360.       3360.    
        3360.       3361.       3361.       3361.       3362.       3362.       3362.       3362.       3362.       3362.    
        3361.       3361.       3361.       3362.       3362.       3362.       3361.       3361.       3361.       3362.    
        3362.       3362.       3362.       3362.       3362.       3362.       3362.       3362.       3362.       3362.    
        3362.       3364.       3364.       3364.       3364.       3364.       3364.       3364.       3364.       3364.    
        3364.       3364.       3364.       3364.       3364.       3364.       3364.       3365.       3365.       3365.    
        3366.       3366.       3366.       3366.       3366.       3366.       3366.       3366.       3366.       3367.    
        3367.       3367.       3367.       3367.       3367.       3367.       3367.       3367.       3366.       3366.    
        3366.       3366.       3366.       3366.       3366.       3366.       3366.       3367.       3367.       3367.    
        3367.       3367.       3367.       3368.       3368.       3368.       3368.       3368.       3368.       3370.    
        3370.       3370.       3370.       3371.       3371.       3371.       3372.       3372.       3372.       3372.    
        3372.       3372.       3371.       3371.       3371.       3371.       3371.       3371.       3371.       3371.    
        3371.       3371.       3371.       3371.       3371.       3371.       3371.       3371.       3371.       3371.    
        3371.       3371.       3371.       3371.       3371.       3373.       3373.       3373.       3374.       3375.    
        3375.       3375.       3375.       3376.       3376.       3377.       3377.       3377.       3377.       3377.    
        3378.       3378.       3378.       3379.       3380.       3381.    
  63    3370.       3368.       3367.       3367.       3367.       3367.       3366.       3364.       3363.       3363.    
        3362.       3360.       3359.       3358.       3360.       3360.       3360.       3360.       3360.       3360.    
        3360.       3360.       3360.       3360.       3360.       3360.       3360.       3360.       3360.       3360.    
        3360.       3360.       3360.       3360.       3360.       3360.       3360.       3360.       3360.       3360.    
        3360.       3361.       3361.       3361.       3362.       3362.       3362.       3362.       3362.       3362.    
        3361.       3361.       3361.       3362.       3362.       3362.       3361.       3361.       3361.       3362.    
        3362.       3362.       3362.       3362.       3362.       3362.       3362.       3362.       3362.       3362.    
        3362.       3364.       3364.       3364.       3364.       3364.       3364.       3364.       3364.       3364.    
        3364.       3364.       3364.       3364.       3364.       3364.       3364.       3365.       3365.       3365.    
        3366.       3366.       3366.       3366.       3366.       3366.       3366.       3366.       3366.       3367.    
        3367.       3367.       3367.       3367.       3367.       3367.       3367.       3367.       3366.       3366.    
        3366.       3366.       3366.       3366.       3366.       3366.       3366.       3367.       3367.       3367.    
        3367.       3367.       3367.       3368.       3368.       3368.       3368.       3368.       3368.       3370.    
        3370.       3370.       3370.       3371.       3371.       3371.       3372.       3372.       3372.       3372.    
        3372.       3372.       3371.       3371.       3371.       3371.       3371.       3371.       3371.       3371.    
        3371.       3371.       3371.       3371.       3371.       3371.       3371.       3371.       3371.       3371.    
        3371.       3371.       3371.       3371.       3371.       3373.       3373.       3373.       3374.       3375.    
        3375.       3375.       3375.       3376.       3376.       3377.       3377.       3377.       3377.       3377.    
        3378.       3378.       3378.       3379.       3380.       3381.    
  64    3370.       3368.       3367.       3367.       3367.       3367.       3366.       3364.       3363.       3363.    
        3362.       3360.       3359.       3358.       3360.       3360.       3360.       3360.       3360.       3360.    
        3360.       3360.       3360.       3360.       3360.       3360.       3360.       3360.       3360.       3360.    
        3360.       3360.       3360.       3360.       3360.       3360.       3360.       3360.       3360.       3360.    
        3360.       3361.       3361.       3361.       3362.       3362.       3362.       3362.       3362.       3362.    
        3361.       3361.       3361.       3362.       3362.       3362.       3361.       3361.       3361.       3362.    
        3362.       3362.       3362.       3362.       3362.       3362.       3362.       3362.       3362.       3362.    
        3362.       3364.       3364.       3364.       3364.       3364.       3364.       3364.       3364.       3364.    
        3364.       3364.       3364.       3364.       3364.       3364.       3364.       3365.       3365.       3365.    
        3366.       3366.       3366.       3366.       3366.       3366.       3366.       3366.       3366.       3367.    
        3367.       3367.       3367.       3367.       3367.       3367.       3367.       3367.       3366.       3366.    
        3366.       3366.       3366.       3366.       3366.       3366.       3366.       3367.       3367.       3367.    
        3367.       3367.       3367.       3368.       3368.       3368.       3368.       3368.       3368.       3370.    
        3370.       3370.       3370.       3371.       3371.       3371.       3372.       3372.       3372.       3372.    
        3372.       3372.       3371.       3371.       3371.       3371.       3371.       3371.       3371.       3371.    
        3371.       3371.       3371.       3371.       3371.       3371.       3371.       3371.       3371.       3371.    
        3371.       3371.       3371.       3371.       3371.       3373.       3373.       3373.       3374.       3375.    
        3375.       3375.       3375.       3376.       3376.       3377.       3377.       3377.       3377.       3377.    
        3378.       3378.       3378.       3379.       3380.       3381.    
  65    3371.       3370.       3369.       3368.       3368.       3368.       3367.       3365.       3364.       3364.    
        3362.       3359.       3358.       3358.       3359.       3359.       3360.       3360.       3360.       3360.    
        3360.       3360.       3360.       3358.       3358.       3358.       3358.       3358.       3358.       3359.    
        3359.       3359.       3360.       3360.       3360.       3360.       3360.       3360.       3361.       3361.    
        3361.       3363.       3363.       3363.       3363.       3363.       3363.       3362.       3362.       3362.    
        3362.       3362.       3362.       3362.       3362.       3362.       3362.       3362.       3362.       3363.    
        3363.       3363.       3363.       3363.       3363.       3364.       3364.       3364.       3364.       3364.    
        3364.       3364.       3364.       3364.       3364.       3364.       3364.       3364.       3364.       3364.    
        3364.       3364.       3364.       3364.       3364.       3364.       3364.       3365.       3365.       3365.    
        3365.       3365.       3365.       3366.       3366.       3366.       3367.       3367.       3367.       3367.    
        3367.       3367.       3367.       3367.       3367.       3366.       3366.       3366.       3366.       3366.    
        3366.       3366.       3366.       3366.       3367.       3367.       3367.       3367.       3367.       3367.    
        3367.       3367.       3367.       3367.       3367.       3367.       3368.       3368.       3368.       3369.    
        3369.       3369.       3369.       3370.       3370.       3370.       3370.       3370.       3370.       3371.    
        3371.       3371.       3371.       3371.       3371.       3371.       3371.       3371.       3371.       3371.    
        3371.       3371.       3371.       3371.       3372.       3372.       3372.       3372.       3372.       3372.    
        3372.       3372.       3372.       3372.       3372.       3373.       3373.       3374.       3375.       3376.    
        3377.       3377.       3377.       3376.       3378.       3380.       3380.       3380.       3380.       3380.    
        3380.       3380.       3380.       3380.       3381.       3381.    
  66    3371.       3370.       3369.       3368.       3368.       3368.       3367.       3365.       3364.       3364.    
        3362.       3359.       3358.       3358.       3359.       3359.       3360.       3360.       3360.       3360.    
        3360.       3360.       3360.       3358.       3358.       3358.       3358.       3358.       3358.       3359.    
        3359.       3359.       3360.       3360.       3360.       3360.       3360.       3360.       3361.       3361.    
        3361.       3363.       3363.       3363.       3363.       3363.       3363.       3362.       3362.       3362.    
        3362.       3362.       3362.       3362.       3362.       3362.       3362.       3362.       3362.       3363.    
        3363.       3363.       3363.       3363.       3363.       3364.       3364.       3364.       3364.       3364.    
        3364.       3364.       3364.       3364.       3364.       3364.       3364.       3364.       3364.       3364.    
        3364.       3364.       3364.       3364.       3364.       3364.       3364.       3365.       3365.       3365.    
        3365.       3365.       3365.       3366.       3366.       3366.       3367.       3367.       3367.       3367.    
        3367.       3367.       3367.       3367.       3367.       3366.       3366.       3366.       3366.       3366.    
        3366.       3366.       3366.       3366.       3367.       3367.       3367.       3367.       3367.       3367.    
        3367.       3367.       3367.       3367.       3367.       3367.       3368.       3368.       3368.       3369.    
        3369.       3369.       3369.       3370.       3370.       3370.       3370.       3370.       3370.       3371.    
        3371.       3371.       3371.       3371.       3371.       3371.       3371.       3371.       3371.       3371.    
        3371.       3371.       3371.       3371.       3372.       3372.       3372.       3372.       3372.       3372.    
        3372.       3372.       3372.       3372.       3372.       3373.       3373.       3374.       3375.       3376.    
        3377.       3377.       3377.       3376.       3378.       3380.       3380.       3380.       3380.       3380.    
        3380.       3380.       3380.       3380.       3381.       3381.    
  67    3371.       3370.       3369.       3368.       3368.       3368.       3367.       3365.       3364.       3364.    
        3362.       3359.       3358.       3358.       3359.       3359.       3360.       3360.       3360.       3360.    
        3360.       3360.       3360.       3358.       3358.       3358.       3358.       3358.       3358.       3359.    
        3359.       3359.       3360.       3360.       3360.       3360.       3360.       3360.       3361.       3361.    
        3361.       3363.       3363.       3363.       3363.       3363.       3363.       3362.       3362.       3362.    
        3362.       3362.       3362.       3362.       3362.       3362.       3362.       3362.       3362.       3363.    
        3363.       3363.       3363.       3363.       3363.       3364.       3364.       3364.       3364.       3364.    
        3364.       3364.       3364.       3364.       3364.       3364.       3364.       3364.       3364.       3364.    
        3364.       3364.       3364.       3364.       3364.       3364.       3364.       3365.       3365.       3365.    
        3365.       3365.       3365.       3366.       3366.       3366.       3367.       3367.       3367.       3367.    
        3367.       3367.       3367.       3367.       3367.       3366.       3366.       3366.       3366.       3366.    
        3366.       3366.       3366.       3366.       3367.       3367.       3367.       3367.       3367.       3367.    
        3367.       3367.       3367.       3367.       3367.       3367.       3368.       3368.       3368.       3369.    
        3369.       3369.       3369.       3370.       3370.       3370.       3370.       3370.       3370.       3371.    
        3371.       3371.       3371.       3371.       3371.       3371.       3371.       3371.       3371.       3371.    
        3371.       3371.       3371.       3371.       3372.       3372.       3372.       3372.       3372.       3372.    
        3372.       3372.       3372.       3372.       3372.       3373.       3373.       3374.       3375.       3376.    
        3377.       3377.       3377.       3376.       3378.       3380.       3380.       3380.       3380.       3380.    
        3380.       3380.       3380.       3380.       3381.       3381.    
  68    3371.       3371.       3370.       3369.       3369.       3368.       3368.       3366.       3364.       3364.    
        3362.       3359.       3358.       3358.       3359.       3359.       3360.       3360.       3360.       3359.    
        3359.       3359.       3359.       3358.       3358.       3358.       3359.       3359.       3359.       3360.    
        3360.       3360.       3361.       3361.       3361.       3361.       3361.       3361.       3362.       3362.    
        3362.       3363.       3363.       3363.       3363.       3363.       3363.       3363.       3363.       3363.    
        3362.       3362.       3362.       3362.       3362.       3362.       3361.       3361.       3361.       3361.    
        3361.       3361.       3362.       3362.       3362.       3363.       3363.       3363.       3364.       3364.    
        3364.       3365.       3365.       3365.       3365.       3365.       3365.       3365.       3365.       3365.    
        3365.       3365.       3365.       3365.       3365.       3365.       3365.       3365.       3365.       3365.    
        3366.       3366.       3366.       3367.       3367.       3367.       3367.       3367.       3367.       3367.    
        3367.       3367.       3367.       3367.       3367.       3367.       3367.       3367.       3367.       3367.    
        3367.       3367.       3367.       3367.       3368.       3368.       3368.       3368.       3368.       3368.    
        3368.       3368.       3368.       3368.       3368.       3368.       3368.       3368.       3368.       3368.    
        3368.       3368.       3368.       3369.       3369.       3369.       3370.       3370.       3370.       3370.    
        3370.       3370.       3370.       3370.       3370.       3370.       3370.       3370.       3371.       3371.    
        3371.       3371.       3371.       3371.       3371.       3371.       3371.       3372.       3372.       3372.    
        3373.       3373.       3373.       3373.       3373.       3373.       3373.       3374.       3377.       3378.    
        3378.       3378.       3378.       3378.       3378.       3379.       3379.       3381.       3381.       3380.    
        3380.       3379.       3379.       3379.       3380.       3382.    
  69    3371.       3371.       3370.       3369.       3369.       3368.       3368.       3366.       3364.       3364.    
        3362.       3359.       3358.       3358.       3359.       3359.       3360.       3360.       3360.       3359.    
        3359.       3359.       3359.       3358.       3358.       3358.       3359.       3359.       3359.       3360.    
        3360.       3360.       3361.       3361.       3361.       3361.       3361.       3361.       3362.       3362.    
        3362.       3363.       3363.       3363.       3363.       3363.       3363.       3363.       3363.       3363.    
        3362.       3362.       3362.       3362.       3362.       3362.       3361.       3361.       3361.       3361.    
        3361.       3361.       3362.       3362.       3362.       3363.       3363.       3363.       3364.       3364.    
        3364.       3365.       3365.       3365.       3365.       3365.       3365.       3365.       3365.       3365.    
        3365.       3365.       3365.       3365.       3365.       3365.       3365.       3365.       3365.       3365.    
        3366.       3366.       3366.       3367.       3367.       3367.       3367.       3367.       3367.       3367.    
        3367.       3367.       3367.       3367.       3367.       3367.       3367.       3367.       3367.       3367.    
        3367.       3367.       3367.       3367.       3368.       3368.       3368.       3368.       3368.       3368.    
        3368.       3368.       3368.       3368.       3368.       3368.       3368.       3368.       3368.       3368.    
        3368.       3368.       3368.       3369.       3369.       3369.       3370.       3370.       3370.       3370.    
        3370.       3370.       3370.       3370.       3370.       3370.       3370.       3370.       3371.       3371.    
        3371.       3371.       3371.       3371.       3371.       3371.       3371.       3372.       3372.       3372.    
        3373.       3373.       3373.       3373.       3373.       3373.       3373.       3374.       3377.       3378.    
        3378.       3378.       3378.       3378.       3378.       3379.       3379.       3381.       3381.       3380.    
        3380.       3379.       3379.       3379.       3380.       3382.    
  70    3371.       3371.       3370.       3369.       3369.       3368.       3368.       3366.       3364.       3364.    
        3362.       3359.       3358.       3358.       3359.       3359.       3360.       3360.       3360.       3359.    
        3359.       3359.       3359.       3358.       3358.       3358.       3359.       3359.       3359.       3360.    
        3360.       3360.       3361.       3361.       3361.       3361.       3361.       3361.       3362.       3362.    
        3362.       3363.       3363.       3363.       3363.       3363.       3363.       3363.       3363.       3363.    
        3362.       3362.       3362.       3362.       3362.       3362.       3361.       3361.       3361.       3361.    
        3361.       3361.       3362.       3362.       3362.       3363.       3363.       3363.       3364.       3364.    
        3364.       3365.       3365.       3365.       3365.       3365.       3365.       3365.       3365.       3365.    
        3365.       3365.       3365.       3365.       3365.       3365.       3365.       3365.       3365.       3365.    
        3366.       3366.       3366.       3367.       3367.       3367.       3367.       3367.       3367.       3367.    
        3367.       3367.       3367.       3367.       3367.       3367.       3367.       3367.       3367.       3367.    
        3367.       3367.       3367.       3367.       3368.       3368.       3368.       3368.       3368.       3368.    
        3368.       3368.       3368.       3368.       3368.       3368.       3368.       3368.       3368.       3368.    
        3368.       3368.       3368.       3369.       3369.       3369.       3370.       3370.       3370.       3370.    
        3370.       3370.       3370.       3370.       3370.       3370.       3370.       3370.       3371.       3371.    
        3371.       3371.       3371.       3371.       3371.       3371.       3371.       3372.       3372.       3372.    
        3373.       3373.       3373.       3373.       3373.       3373.       3373.       3374.       3377.       3378.    
        3378.       3378.       3378.       3378.       3378.       3379.       3379.       3381.       3381.       3380.    
        3380.       3379.       3379.       3379.       3380.       3382.    
  71    3371.       3371.       3371.       3369.       3369.       3369.       3368.       3367.       3365.       3365.    
        3364.       3360.       3359.       3360.       3360.       3360.       3361.       3361.       3361.       3360.    
        3360.       3360.       3360.       3359.       3359.       3359.       3359.       3359.       3359.       3361.    
        3361.       3361.       3361.       3361.       3361.       3361.       3361.       3361.       3362.       3362.    
        3362.       3362.       3362.       3362.       3362.       3362.       3362.       3362.       3362.       3362.    
        3362.       3362.       3362.       3361.       3361.       3361.       3362.       3362.       3362.       3362.    
        3362.       3362.       3364.       3364.       3364.       3365.       3365.       3365.       3366.       3366.    
        3366.       3367.       3367.       3367.       3367.       3367.       3367.       3367.       3368.       3368.    
        3368.       3368.       3368.       3368.       3368.       3368.       3368.       3368.       3368.       3368.    
        3368.       3368.       3368.       3368.       3368.       3368.       3368.       3368.       3368.       3368.    
        3368.       3368.       3368.       3368.       3368.       3368.       3368.       3368.       3369.       3369.    
        3369.       3370.       3370.       3370.       3370.       3370.       3370.       3370.       3370.       3370.    
        3370.       3370.       3370.       3370.       3370.       3370.       3370.       3370.       3370.       3370.    
        3370.       3370.       3370.       3370.       3370.       3370.       3370.       3370.       3370.       3371.    
        3371.       3371.       3372.       3372.       3372.       3373.       3373.       3373.       3373.       3373.    
        3373.       3373.       3373.       3373.       3373.       3373.       3373.       3374.       3374.       3374.    
        3374.       3374.       3374.       3375.       3375.       3376.       3376.       3377.       3377.       3379.    
        3379.       3379.       3379.       3379.       3379.       3380.       3380.       3381.       3381.       3382.    
        3381.       3381.       3381.       3382.       3384.       3385.    
  72    3371.       3371.       3371.       3369.       3369.       3369.       3368.       3367.       3365.       3365.    
        3364.       3360.       3359.       3360.       3360.       3360.       3361.       3361.       3361.       3360.    
        3360.       3360.       3360.       3359.       3359.       3359.       3359.       3359.       3359.       3361.    
        3361.       3361.       3361.       3361.       3361.       3361.       3361.       3361.       3362.       3362.    
        3362.       3362.       3362.       3362.       3362.       3362.       3362.       3362.       3362.       3362.    
        3362.       3362.       3362.       3361.       3361.       3361.       3362.       3362.       3362.       3362.    
        3362.       3362.       3364.       3364.       3364.       3365.       3365.       3365.       3366.       3366.    
        3366.       3367.       3367.       3367.       3367.       3367.       3367.       3367.       3368.       3368.    
        3368.       3368.       3368.       3368.       3368.       3368.       3368.       3368.       3368.       3368.    
        3368.       3368.       3368.       3368.       3368.       3368.       3368.       3368.       3368.       3368.    
        3368.       3368.       3368.       3368.       3368.       3368.       3368.       3368.       3369.       3369.    
        3369.       3370.       3370.       3370.       3370.       3370.       3370.       3370.       3370.       3370.    
        3370.       3370.       3370.       3370.       3370.       3370.       3370.       3370.       3370.       3370.    
        3370.       3370.       3370.       3370.       3370.       3370.       3370.       3370.       3370.       3371.    
        3371.       3371.       3372.       3372.       3372.       3373.       3373.       3373.       3373.       3373.    
        3373.       3373.       3373.       3373.       3373.       3373.       3373.       3374.       3374.       3374.    
        3374.       3374.       3374.       3375.       3375.       3376.       3376.       3377.       3377.       3379.    
        3379.       3379.       3379.       3379.       3379.       3380.       3380.       3381.       3381.       3382.    
        3381.       3381.       3381.       3382.       3384.       3385.    
  73    3371.       3371.       3371.       3369.       3369.       3369.       3368.       3367.       3365.       3365.    
        3364.       3360.       3359.       3360.       3360.       3360.       3361.       3361.       3361.       3360.    
        3360.       3360.       3360.       3359.       3359.       3359.       3359.       3359.       3359.       3361.    
        3361.       3361.       3361.       3361.       3361.       3361.       3361.       3361.       3362.       3362.    
        3362.       3362.       3362.       3362.       3362.       3362.       3362.       3362.       3362.       3362.    
        3362.       3362.       3362.       3361.       3361.       3361.       3362.       3362.       3362.       3362.    
        3362.       3362.       3364.       3364.       3364.       3365.       3365.       3365.       3366.       3366.    
        3366.       3367.       3367.       3367.       3367.       3367.       3367.       3367.       3368.       3368.    
        3368.       3368.       3368.       3368.       3368.       3368.       3368.       3368.       3368.       3368.    
        3368.       3368.       3368.       3368.       3368.       3368.       3368.       3368.       3368.       3368.    
        3368.       3368.       3368.       3368.       3368.       3368.       3368.       3368.       3369.       3369.    
        3369.       3370.       3370.       3370.       3370.       3370.       3370.       3370.       3370.       3370.    
        3370.       3370.       3370.       3370.       3370.       3370.       3370.       3370.       3370.       3370.    
        3370.       3370.       3370.       3370.       3370.       3370.       3370.       3370.       3370.       3371.    
        3371.       3371.       3372.       3372.       3372.       3373.       3373.       3373.       3373.       3373.    
        3373.       3373.       3373.       3373.       3373.       3373.       3373.       3374.       3374.       3374.    
        3374.       3374.       3374.       3375.       3375.       3376.       3376.       3377.       3377.       3379.    
        3379.       3379.       3379.       3379.       3379.       3380.       3380.       3381.       3381.       3382.    
        3381.       3381.       3381.       3382.       3384.       3385.    
  74    3373.       3372.       3371.       3370.       3370.       3370.       3369.       3368.       3367.       3367.    
        3365.       3363.       3361.       3361.       3361.       3361.       3360.       3360.       3360.       3360.    
        3360.       3360.       3360.       3360.       3360.       3360.       3360.       3360.       3360.       3361.    
        3361.       3361.       3362.       3362.       3362.       3362.       3362.       3362.       3362.       3362.    
        3362.       3362.       3362.       3362.       3362.       3362.       3362.       3362.       3362.       3362.    
        3362.       3362.       3362.       3362.       3362.       3362.       3363.       3363.       3363.       3364.    
        3364.       3364.       3366.       3366.       3366.       3368.       3368.       3368.       3368.       3368.    
        3368.       3370.       3370.       3370.       3370.       3370.       3370.       3370.       3370.       3370.    
        3370.       3371.       3371.       3371.       3371.       3371.       3371.       3371.       3371.       3371.    
        3371.       3371.       3371.       3371.       3371.       3371.       3371.       3371.       3371.       3372.    
        3372.       3372.       3372.       3372.       3372.       3372.       3372.       3372.       3372.       3372.    
        3372.       3372.       3372.       3372.       3372.       3372.       3372.       3373.       3373.       3373.    
        3373.       3373.       3373.       3374.       3374.       3374.       3374.       3374.       3374.       3374.    
        3374.       3374.       3374.       3374.       3374.       3374.       3374.       3374.       3374.       3374.    
        3374.       3374.       3375.       3375.       3375.       3376.       3376.       3376.       3376.       3376.    
        3376.       3376.       3376.       3376.       3376.       3376.       3376.       3376.       3376.       3376.    
        3376.       3376.       3376.       3376.       3376.       3378.       3378.       3379.       3379.       3379.    
        3380.       3380.       3381.       3381.       3381.       3381.       3381.       3381.       3381.       3382.    
        3382.       3382.       3382.       3383.       3384.       3385.    
  75    3373.       3372.       3371.       3370.       3370.       3370.       3369.       3368.       3367.       3367.    
        3365.       3363.       3361.       3361.       3361.       3361.       3360.       3360.       3360.       3360.    
        3360.       3360.       3360.       3360.       3360.       3360.       3360.       3360.       3360.       3361.    
        3361.       3361.       3362.       3362.       3362.       3362.       3362.       3362.       3362.       3362.    
        3362.       3362.       3362.       3362.       3362.       3362.       3362.       3362.       3362.       3362.    
        3362.       3362.       3362.       3362.       3362.       3362.       3363.       3363.       3363.       3364.    
        3364.       3364.       3366.       3366.       3366.       3368.       3368.       3368.       3368.       3368.    
        3368.       3370.       3370.       3370.       3370.       3370.       3370.       3370.       3370.       3370.    
        3370.       3371.       3371.       3371.       3371.       3371.       3371.       3371.       3371.       3371.    
        3371.       3371.       3371.       3371.       3371.       3371.       3371.       3371.       3371.       3372.    
        3372.       3372.       3372.       3372.       3372.       3372.       3372.       3372.       3372.       3372.    
        3372.       3372.       3372.       3372.       3372.       3372.       3372.       3373.       3373.       3373.    
        3373.       3373.       3373.       3374.       3374.       3374.       3374.       3374.       3374.       3374.    
        3374.       3374.       3374.       3374.       3374.       3374.       3374.       3374.       3374.       3374.    
        3374.       3374.       3375.       3375.       3375.       3376.       3376.       3376.       3376.       3376.    
        3376.       3376.       3376.       3376.       3376.       3376.       3376.       3376.       3376.       3376.    
        3376.       3376.       3376.       3376.       3376.       3378.       3378.       3379.       3379.       3379.    
        3380.       3380.       3381.       3381.       3381.       3381.       3381.       3381.       3381.       3382.    
        3382.       3382.       3382.       3383.       3384.       3385.    
  76    3374.       3374.       3372.       3371.       3371.       3370.       3370.       3369.       3368.       3368.    
        3366.       3364.       3362.       3362.       3361.       3361.       3358.       3358.       3358.       3360.    
        3360.       3360.       3360.       3360.       3360.       3360.       3360.       3360.       3360.       3361.    
        3361.       3361.       3361.       3361.       3361.       3361.       3361.       3361.       3362.       3362.    
        3362.       3363.       3363.       3363.       3363.       3363.       3363.       3363.       3363.       3363.    
        3363.       3363.       3363.       3363.       3363.       3363.       3364.       3364.       3364.       3366.    
        3366.       3366.       3368.       3368.       3368.       3370.       3370.       3370.       3370.       3370.    
        3370.       3370.       3370.       3370.       3370.       3371.       3371.       3371.       3372.       3372.    
        3372.       3371.       3371.       3371.       3372.       3372.       3372.       3373.       3373.       3373.    
        3373.       3373.       3373.       3373.       3373.       3373.       3373.       3373.       3373.       3374.    
        3374.       3374.       3374.       3374.       3374.       3374.       3374.       3374.       3374.       3374.    
        3374.       3374.       3374.       3374.       3374.       3374.       3374.       3374.       3374.       3374.    
        3374.       3374.       3374.       3375.       3375.       3375.       3376.       3376.       3376.       3375.    
        3375.       3375.       3375.       3375.       3375.       3375.       3376.       3376.       3376.       3376.    
        3376.       3376.       3376.       3376.       3376.       3377.       3377.       3377.       3378.       3378.    
        3378.       3378.       3378.       3378.       3378.       3378.       3378.       3378.       3378.       3378.    
        3378.       3378.       3378.       3378.       3378.       3378.       3378.       3379.       3380.       3380.    
        3380.       3380.       3382.       3383.       3383.       3382.       3382.       3382.       3382.       3382.    
        3382.       3383.       3383.       3384.       3385.       3385.    
  77    3374.       3374.       3372.       3371.       3371.       3370.       3370.       3369.       3368.       3368.    
        3366.       3364.       3362.       3362.       3361.       3361.       3358.       3358.       3358.       3360.    
        3360.       3360.       3360.       3360.       3360.       3360.       3360.       3360.       3360.       3361.    
        3361.       3361.       3361.       3361.       3361.       3361.       3361.       3361.       3362.       3362.    
        3362.       3363.       3363.       3363.       3363.       3363.       3363.       3363.       3363.       3363.    
        3363.       3363.       3363.       3363.       3363.       3363.       3364.       3364.       3364.       3366.    
        3366.       3366.       3368.       3368.       3368.       3370.       3370.       3370.       3370.       3370.    
        3370.       3370.       3370.       3370.       3370.       3371.       3371.       3371.       3372.       3372.    
        3372.       3371.       3371.       3371.       3372.       3372.       3372.       3373.       3373.       3373.    
        3373.       3373.       3373.       3373.       3373.       3373.       3373.       3373.       3373.       3374.    
        3374.       3374.       3374.       3374.       3374.       3374.       3374.       3374.       3374.       3374.    
        3374.       3374.       3374.       3374.       3374.       3374.       3374.       3374.       3374.       3374.    
        3374.       3374.       3374.       3375.       3375.       3375.       3376.       3376.       3376.       3375.    
        3375.       3375.       3375.       3375.       3375.       3375.       3376.       3376.       3376.       3376.    
        3376.       3376.       3376.       3376.       3376.       3377.       3377.       3377.       3378.       3378.    
        3378.       3378.       3378.       3378.       3378.       3378.       3378.       3378.       3378.       3378.    
        3378.       3378.       3378.       3378.       3378.       3378.       3378.       3379.       3380.       3380.    
        3380.       3380.       3382.       3383.       3383.       3382.       3382.       3382.       3382.       3382.    
        3382.       3383.       3383.       3384.       3385.       3385.    
  78    3374.       3373.       3372.       3371.       3371.       3371.       3369.       3368.       3368.       3368.    
        3366.       3365.       3363.       3362.       3362.       3362.       3361.       3361.       3361.       3360.    
        3360.       3360.       3360.       3360.       3360.       3360.       3360.       3360.       3360.       3362.    
        3362.       3362.       3361.       3361.       3361.       3361.       3361.       3361.       3362.       3362.    
        3362.       3363.       3363.       3363.       3364.       3364.       3364.       3364.       3364.       3364.    
        3363.       3363.       3363.       3364.       3364.       3364.       3365.       3365.       3365.       3367.    
        3367.       3367.       3369.       3369.       3369.       3370.       3370.       3370.       3371.       3371.    
        3371.       3371.       3371.       3371.       3371.       3371.       3371.       3371.       3372.       3372.    
        3372.       3372.       3372.       3372.       3373.       3373.       3373.       3373.       3373.       3373.    
        3372.       3372.       3372.       3372.       3372.       3372.       3373.       3373.       3373.       3374.    
        3374.       3374.       3375.       3375.       3375.       3375.       3375.       3375.       3375.       3375.    
        3375.       3374.       3374.       3374.       3374.       3374.       3374.       3374.       3374.       3374.    
        3375.       3375.       3375.       3376.       3376.       3376.       3376.       3376.       3376.       3376.    
        3376.       3376.       3376.       3376.       3376.       3376.       3376.       3376.       3376.       3376.    
        3376.       3376.       3377.       3377.       3377.       3378.       3378.       3378.       3379.       3379.    
        3379.       3379.       3379.       3379.       3379.       3379.       3379.       3379.       3379.       3379.    
        3379.       3379.       3379.       3379.       3379.       3380.       3380.       3381.       3382.       3382.    
        3382.       3382.       3382.       3384.       3383.       3384.       3384.       3383.       3383.       3384.    
        3385.       3386.       3386.       3386.       3386.       3387.    
  79    3374.       3373.       3372.       3372.       3372.       3372.       3371.       3369.       3368.       3368.    
        3367.       3366.       3364.       3362.       3361.       3361.       3359.       3359.       3359.       3359.    
        3359.       3359.       3359.       3360.       3360.       3360.       3360.       3360.       3360.       3359.    
        3359.       3359.       3360.       3360.       3360.       3360.       3360.       3360.       3361.       3361.    
        3361.       3363.       3363.       3363.       3364.       3364.       3364.       3363.       3363.       3363.    
        3363.       3363.       3363.       3365.       3365.       3365.       3367.       3367.       3367.       3368.    
        3368.       3368.       3369.       3369.       3369.       3371.       3371.       3371.       3372.       3372.    
        3372.       3371.       3371.       3371.       3371.       3371.       3371.       3371.       3372.       3372.    
        3372.       3372.       3372.       3372.       3373.       3373.       3373.       3373.       3373.       3373.    
        3373.       3373.       3373.       3373.       3373.       3373.       3374.       3374.       3374.       3376.    
        3376.       3376.       3376.       3376.       3376.       3377.       3377.       3377.       3377.       3377.    
        3377.       3377.       3377.       3377.       3376.       3376.       3376.       3377.       3377.       3377.    
        3377.       3377.       3377.       3376.       3376.       3376.       3376.       3376.       3376.       3377.    
        3377.       3377.       3377.       3378.       3378.       3378.       3378.       3378.       3378.       3378.    
        3378.       3378.       3379.       3379.       3379.       3380.       3380.       3380.       3380.       3380.    
        3380.       3380.       3380.       3380.       3379.       3379.       3379.       3379.       3379.       3379.    
        3379.       3379.       3379.       3379.       3379.       3381.       3381.       3383.       3384.       3383.    
        3383.       3383.       3384.       3385.       3385.       3385.       3385.       3385.       3384.       3385.    
        3385.       3386.       3386.       3386.       3386.       3386.    
  80    3375.       3374.       3373.       3373.       3373.       3372.       3372.       3369.       3368.       3368.    
        3367.       3366.       3364.       3362.       3360.       3360.       3358.       3358.       3358.       3358.    
        3358.       3358.       3358.       3359.       3359.       3359.       3360.       3360.       3360.       3360.    
        3360.       3360.       3361.       3361.       3361.       3361.       3361.       3361.       3361.       3361.    
        3361.       3362.       3362.       3362.       3363.       3363.       3363.       3362.       3362.       3362.    
        3363.       3363.       3363.       3365.       3365.       3365.       3368.       3368.       3368.       3368.    
        3368.       3368.       3369.       3369.       3369.       3370.       3370.       3370.       3371.       3371.    
        3371.       3371.       3371.       3371.       3371.       3371.       3371.       3371.       3372.       3372.    
        3372.       3372.       3372.       3372.       3373.       3373.       3373.       3373.       3373.       3373.    
        3374.       3374.       3374.       3374.       3374.       3374.       3376.       3376.       3376.       3377.    
        3377.       3377.       3377.       3377.       3377.       3378.       3378.       3378.       3379.       3379.    
        3379.       3380.       3380.       3380.       3379.       3379.       3379.       3379.       3379.       3379.    
        3378.       3378.       3378.       3377.       3377.       3377.       3377.       3377.       3377.       3378.    
        3378.       3378.       3378.       3379.       3379.       3379.       3380.       3380.       3380.       3380.    
        3380.       3380.       3381.       3381.       3381.       3381.       3381.       3381.       3381.       3381.    
        3381.       3381.       3381.       3381.       3381.       3381.       3381.       3380.       3380.       3380.    
        3381.       3381.       3381.       3382.       3382.       3382.       3382.       3384.       3384.       3384.    
        3385.       3385.       3385.       3385.       3384.       3385.       3385.       3385.       3385.       3385.    
        3385.       3386.       3386.       3387.       3387.       3386.    
  81    3376.       3376.       3374.       3373.       3373.       3372.       3371.       3370.       3368.       3368.    
        3368.       3367.       3365.       3363.       3360.       3360.       3358.       3358.       3358.       3359.    
        3359.       3359.       3359.       3358.       3358.       3358.       3360.       3360.       3360.       3361.    
        3361.       3361.       3361.       3361.       3361.       3361.       3361.       3361.       3362.       3362.    
        3362.       3362.       3362.       3362.       3362.       3362.       3362.       3362.       3362.       3362.    
        3363.       3363.       3363.       3365.       3365.       3365.       3367.       3367.       3367.       3367.    
        3367.       3367.       3368.       3368.       3368.       3369.       3369.       3369.       3370.       3370.    
        3370.       3371.       3371.       3371.       3371.       3372.       3372.       3372.       3373.       3373.    
        3373.       3373.       3373.       3373.       3373.       3373.       3373.       3374.       3374.       3374.    
        3375.       3375.       3375.       3376.       3376.       3376.       3377.       3377.       3377.       3377.    
        3377.       3377.       3378.       3378.       3378.       3380.       3380.       3380.       3381.       3381.    
        3381.       3382.       3382.       3382.       3381.       3381.       3381.       3380.       3380.       3380.    
        3380.       3380.       3380.       3380.       3380.       3380.       3381.       3381.       3381.       3381.    
        3381.       3381.       3381.       3382.       3382.       3382.       3383.       3383.       3383.       3382.    
        3382.       3382.       3382.       3382.       3382.       3382.       3382.       3382.       3383.       3383.    
        3383.       3384.       3384.       3384.       3385.       3385.       3385.       3384.       3384.       3384.    
        3384.       3384.       3384.       3383.       3383.       3383.       3383.       3384.       3384.       3384.    
        3384.       3384.       3384.       3384.       3384.       3386.       3386.       3387.       3388.       3387.    
        3387.       3388.       3388.       3388.       3388.       3389.    
  82    3376.       3376.       3374.       3373.       3373.       3372.       3371.       3370.       3368.       3368.    
        3368.       3367.       3365.       3363.       3360.       3360.       3358.       3358.       3358.       3359.    
        3359.       3359.       3359.       3358.       3358.       3358.       3360.       3360.       3360.       3361.    
        3361.       3361.       3361.       3361.       3361.       3361.       3361.       3361.       3362.       3362.    
        3362.       3362.       3362.       3362.       3362.       3362.       3362.       3362.       3362.       3362.    
        3363.       3363.       3363.       3365.       3365.       3365.       3367.       3367.       3367.       3367.    
        3367.       3367.       3368.       3368.       3368.       3369.       3369.       3369.       3370.       3370.    
        3370.       3371.       3371.       3371.       3371.       3372.       3372.       3372.       3373.       3373.    
        3373.       3373.       3373.       3373.       3373.       3373.       3373.       3374.       3374.       3374.    
        3375.       3375.       3375.       3376.       3376.       3376.       3377.       3377.       3378.       3377.    
        3377.       3377.       3378.       3378.       3378.       3380.       3380.       3380.       3381.       3381.    
        3381.       3382.       3382.       3382.       3381.       3381.       3381.       3380.       3380.       3380.    
        3380.       3380.       3380.       3380.       3380.       3380.       3381.       3381.       3385.       3381.    
        3381.       3381.       3381.       3382.       3382.       3382.       3383.       3383.       3383.       3382.    
        3382.       3382.       3382.       3382.       3382.       3382.       3382.       3382.       3383.       3383.    
        3383.       3384.       3384.       3384.       3385.       3385.       3385.       3384.       3384.       3384.    
        3384.       3384.       3384.       3383.       3383.       3383.       3383.       3384.       3384.       3384.    
        3384.       3384.       3384.       3384.       3384.       3386.       3386.       3387.       3388.       3387.    
        3387.       3388.       3388.       3388.       3388.       3389.    
  83    3376.       3375.       3374.       3373.       3373.       3372.       3371.       3370.       3369.       3369.    
        3368.       3368.       3366.       3363.       3361.       3361.       3358.       3358.       3358.       3358.    
        3358.       3358.       3358.       3359.       3359.       3359.       3360.       3360.       3360.       3361.    
        3361.       3361.       3362.       3362.       3362.       3362.       3362.       3362.       3362.       3362.    
        3362.       3363.       3363.       3363.       3363.       3363.       3363.       3363.       3363.       3363.    
        3364.       3364.       3364.       3365.       3365.       3365.       3367.       3367.       3367.       3368.    
        3368.       3368.       3367.       3367.       3367.       3368.       3368.       3368.       3369.       3369.    
        3369.       3370.       3370.       3370.       3370.       3371.       3371.       3371.       3372.       3372.    
        3372.       3373.       3373.       3373.       3374.       3374.       3374.       3375.       3375.       3375.    
        3376.       3376.       3376.       3377.       3377.       3377.       3378.       3378.       3378.       3378.    
        3378.       3378.       3378.       3378.       3378.       3380.       3380.       3380.       3381.       3381.    
        3381.       3382.       3382.       3382.       3383.       3383.       3383.       3382.       3382.       3382.    
        3382.       3382.       3382.       3384.       3384.       3384.       3385.       3385.       3385.       3386.    
        3386.       3386.       3386.       3386.       3386.       3386.       3385.       3385.       3385.       3384.    
        3384.       3384.       3383.       3383.       3383.       3384.       3384.       3384.       3385.       3385.    
        3385.       3385.       3385.       3385.       3384.       3384.       3384.       3384.       3384.       3384.    
        3383.       3383.       3383.       3383.       3383.       3384.       3384.       3384.       3384.       3384.    
        3384.       3384.       3384.       3384.       3386.       3386.       3386.       3390.       3391.       3392.    
        3392.       3392.       3392.       3393.       3393.       3393.    
  84    3376.       3375.       3374.       3372.       3372.       3371.       3370.       3370.       3368.       3368.    
        3368.       3367.       3365.       3364.       3361.       3361.       3358.       3358.       3358.       3358.    
        3358.       3358.       3358.       3359.       3359.       3359.       3360.       3360.       3360.       3361.    
        3361.       3361.       3361.       3361.       3361.       3361.       3361.       3361.       3362.       3362.    
        3362.       3363.       3363.       3363.       3363.       3363.       3363.       3364.       3364.       3364.    
        3363.       3363.       3363.       3365.       3365.       3365.       3369.       3369.       3369.       3370.    
        3370.       3370.       3369.       3369.       3369.       3368.       3368.       3368.       3368.       3368.    
        3368.       3369.       3369.       3369.       3369.       3370.       3370.       3370.       3371.       3371.    
        3371.       3371.       3371.       3371.       3373.       3373.       3373.       3374.       3374.       3374.    
        3377.       3377.       3377.       3377.       3377.       3377.       3377.       3377.       3377.       3377.    
        3377.       3377.       3378.       3378.       3378.       3380.       3380.       3380.       3381.       3381.    
        3381.       3383.       3383.       3383.       3383.       3383.       3383.       3383.       3383.       3383.    
        3383.       3383.       3383.       3384.       3384.       3384.       3384.       3384.       3384.       3385.    
        3385.       3385.       3385.       3386.       3386.       3386.       3386.       3386.       3386.       3386.    
        3386.       3386.       3386.       3386.       3386.       3387.       3387.       3387.       3387.       3387.    
        3387.       3388.       3388.       3388.       3386.       3386.       3386.       3385.       3385.       3385.    
        3384.       3384.       3384.       3384.       3384.       3383.       3383.       3383.       3384.       3385.    
        3385.       3385.       3386.       3386.       3388.       3389.       3389.       3390.       3392.       3392.    
        3393.       3394.       3394.       3394.       3394.       3394.    
  85    3376.       3375.       3374.       3373.       3373.       3371.       3370.       3369.       3368.       3368.    
        3368.       3367.       3365.       3363.       3361.       3361.       3359.       3359.       3359.       3359.    
        3359.       3359.       3359.       3361.       3361.       3361.       3360.       3360.       3360.       3360.    
        3360.       3360.       3360.       3360.       3360.       3361.       3361.       3361.       3362.       3362.    
        3362.       3363.       3363.       3363.       3363.       3363.       3363.       3363.       3363.       3363.    
        3364.       3364.       3364.       3366.       3366.       3366.       3370.       3370.       3370.       3371.    
        3371.       3371.       3372.       3372.       3372.       3370.       3370.       3370.       3369.       3369.    
        3369.       3370.       3370.       3370.       3370.       3371.       3371.       3371.       3371.       3371.    
        3371.       3371.       3371.       3371.       3372.       3372.       3372.       3374.       3374.       3374.    
        3376.       3376.       3376.       3377.       3377.       3377.       3377.       3377.       3377.       3377.    
        3377.       3377.       3379.       3379.       3379.       3380.       3380.       3380.       3382.       3382.    
        3382.       3382.       3382.       3382.       3383.       3383.       3383.       3385.       3385.       3385.    
        3385.       3385.       3385.       3385.       3385.       3385.       3385.       3385.       3385.       3386.    
        3386.       3386.       3386.       3387.       3387.       3387.       3388.       3388.       3388.       3388.    
        3388.       3388.       3388.       3388.       3388.       3388.       3388.       3388.       3390.       3390.    
        3390.       3390.       3390.       3390.       3390.       3390.       3390.       3388.       3388.       3388.    
        3387.       3387.       3387.       3386.       3386.       3386.       3386.       3386.       3386.       3387.    
        3387.       3387.       3388.       3389.       3390.       3392.       3392.       3392.       3392.       3394.    
        3394.       3394.       3394.       3395.       3395.       3395.    
  86    3377.       3375.       3374.       3373.       3373.       3372.       3371.       3369.       3368.       3368.    
        3366.       3365.       3363.       3362.       3360.       3360.       3360.       3360.       3360.       3362.    
        3362.       3362.       3362.       3362.       3362.       3362.       3361.       3361.       3361.       3360.    
        3360.       3360.       3360.       3360.       3360.       3361.       3361.       3361.       3362.       3362.    
        3362.       3363.       3363.       3363.       3363.       3363.       3363.       3362.       3362.       3362.    
        3364.       3364.       3364.       3365.       3365.       3365.       3369.       3369.       3369.       3374.    
        3374.       3374.       3374.       3374.       3374.       3372.       3372.       3372.       3371.       3371.    
        3371.       3371.       3371.       3371.       3371.       3371.       3371.       3371.       3371.       3371.    
        3371.       3372.       3372.       3372.       3372.       3372.       3372.       3373.       3373.       3373.    
        3374.       3374.       3374.       3376.       3376.       3376.       3377.       3377.       3377.       3378.    
        3378.       3378.       3381.       3381.       3381.       3383.       3383.       3383.       3384.       3384.    
        3384.       3383.       3383.       3383.       3384.       3384.       3384.       3386.       3386.       3386.    
        3386.       3386.       3386.       3386.       3386.       3386.       3387.       3387.       3387.       3387.    
        3387.       3387.       3387.       3388.       3388.       3388.       3388.       3388.       3388.       3388.    
        3388.       3388.       3388.       3388.       3388.       3389.       3389.       3389.       3390.       3390.    
        3390.       3390.       3390.       3390.       3391.       3391.       3391.       3391.       3391.       3391.    
        3390.       3390.       3390.       3389.       3389.       3388.       3388.       3388.       3388.       3389.    
        3389.       3389.       3390.       3390.       3390.       3391.       3391.       3393.       3394.       3394.    
        3394.       3394.       3394.       3395.       3395.       3395.    
  87    3377.       3375.       3374.       3373.       3373.       3372.       3371.       3369.       3368.       3368.    
        3366.       3365.       3363.       3362.       3360.       3360.       3360.       3360.       3360.       3362.    
        3362.       3362.       3362.       3362.       3362.       3362.       3361.       3361.       3361.       3360.    
        3360.       3360.       3360.       3360.       3360.       3361.       3361.       3361.       3362.       3362.    
        3362.       3363.       3363.       3363.       3363.       3363.       3363.       3362.       3362.       3362.    
        3364.       3364.       3364.       3365.       3365.       3365.       3369.       3369.       3369.       3374.    
        3374.       3374.       3374.       3374.       3374.       3372.       3372.       3372.       3371.       3371.    
        3371.       3371.       3371.       3371.       3371.       3371.       3371.       3371.       3371.       3371.    
        3371.       3372.       3372.       3372.       3372.       3372.       3372.       3373.       3373.       3373.    
        3374.       3374.       3374.       3376.       3376.       3376.       3377.       3377.       3377.       3378.    
        3378.       3378.       3381.       3381.       3381.       3383.       3383.       3383.       3384.       3384.    
        3384.       3383.       3383.       3383.       3384.       3384.       3384.       3386.       3386.       3386.    
        3386.       3386.       3386.       3386.       3386.       3386.       3387.       3387.       3387.       3387.    
        3387.       3387.       3387.       3388.       3388.       3388.       3388.       3388.       3388.       3388.    
        3388.       3388.       3388.       3388.       3388.       3389.       3389.       3389.       3390.       3390.    
        3390.       3390.       3390.       3390.       3391.       3391.       3391.       3391.       3391.       3391.    
        3390.       3390.       3390.       3389.       3389.       3388.       3388.       3388.       3388.       3389.    
        3389.       3389.       3390.       3390.       3390.       3391.       3391.       3393.       3394.       3394.    
        3394.       3394.       3394.       3395.       3395.       3395.    
  88    3378.       3376.       3375.       3374.       3374.       3373.       3371.       3370.       3368.       3368.    
        3366.       3365.       3362.       3362.       3362.       3362.       3360.       3360.       3360.       3361.    
        3361.       3361.       3361.       3362.       3362.       3362.       3362.       3362.       3362.       3360.    
        3360.       3360.       3361.       3361.       3361.       3362.       3362.       3362.       3362.       3362.    
        3362.       3363.       3363.       3363.       3363.       3363.       3363.       3363.       3363.       3363.    
        3364.       3364.       3364.       3365.       3365.       3365.       3369.       3369.       3369.       3374.    
        3374.       3374.       3374.       3374.       3374.       3372.       3372.       3372.       3372.       3372.    
        3372.       3372.       3372.       3372.       3372.       3371.       3371.       3371.       3371.       3371.    
        3371.       3371.       3371.       3371.       3372.       3372.       3372.       3372.       3372.       3372.    
        3373.       3373.       3373.       3374.       3374.       3374.       3375.       3375.       3375.       3378.    
        3378.       3378.       3381.       3381.       3381.       3383.       3383.       3383.       3384.       3384.    
        3384.       3385.       3385.       3385.       3385.       3385.       3385.       3386.       3386.       3386.    
        3386.       3386.       3386.       3386.       3386.       3386.       3386.       3386.       3386.       3386.    
        3386.       3386.       3386.       3387.       3387.       3387.       3388.       3388.       3388.       3389.    
        3389.       3389.       3389.       3389.       3389.       3389.       3389.       3389.       3389.       3389.    
        3389.       3390.       3390.       3390.       3391.       3391.       3391.       3392.       3392.       3392.    
        3392.       3392.       3392.       3391.       3391.       3391.       3391.       3389.       3388.       3389.    
        3389.       3389.       3390.       3391.       3391.       3391.       3391.       3392.       3393.       3393.    
        3395.       3396.       3396.       3396.       3395.       3395.    
  89    3378.       3376.       3374.       3373.       3373.       3372.       3371.       3369.       3368.       3368.    
        3366.       3364.       3364.       3362.       3362.       3362.       3362.       3362.       3362.       3362.    
        3362.       3362.       3362.       3361.       3361.       3361.       3361.       3361.       3361.       3361.    
        3361.       3361.       3361.       3361.       3361.       3361.       3361.       3361.       3362.       3362.    
        3362.       3363.       3363.       3363.       3365.       3365.       3365.       3365.       3365.       3365.    
        3365.       3365.       3365.       3366.       3366.       3366.       3369.       3369.       3369.       3373.    
        3373.       3373.       3374.       3374.       3374.       3374.       3374.       3374.       3374.       3374.    
        3374.       3373.       3373.       3373.       3373.       3372.       3372.       3372.       3372.       3372.    
        3372.       3371.       3371.       3371.       3371.       3371.       3371.       3371.       3371.       3371.    
        3372.       3372.       3372.       3374.       3374.       3374.       3375.       3375.       3375.       3377.    
        3377.       3377.       3380.       3380.       3380.       3383.       3383.       3383.       3384.       3384.    
        3384.       3384.       3384.       3384.       3386.       3386.       3386.       3386.       3386.       3386.    
        3385.       3385.       3385.       3385.       3385.       3385.       3385.       3385.       3385.       3386.    
        3386.       3386.       3386.       3387.       3387.       3387.       3388.       3388.       3388.       3389.    
        3389.       3389.       3389.       3389.       3389.       3389.       3389.       3389.       3390.       3390.    
        3390.       3391.       3391.       3391.       3391.       3391.       3391.       3392.       3392.       3392.    
        3393.       3393.       3393.       3392.       3392.       3392.       3392.       3391.       3391.       3391.    
        3390.       3390.       3390.       3390.       3391.       3392.       3392.       3393.       3394.       3395.    
        3395.       3396.       3396.       3398.       3397.       3397.    

   MODEL LAYER BOTTOM EL. =   3300.00     FOR LAYER   4


 STRESS PERIOD     LENGTH       TIME STEPS     MULTIPLIER FOR DELT    SS FLAG
 ----------------------------------------------------------------------------
        1         13514.00          6                    1.000         SS
        2         14751.00          6                    1.000         SS
        3         7529.000          6                    1.000         SS
        4         14610.00          6                    1.000         SS

 STEADY-STATE SIMULATION



 
 # Basic Package file created on 29/01/2021 by ModelMuse version 4.3.0.0.        
 # Number of active cells = 62412.                                               
 THE FREE FORMAT OPTION HAS BEEN SELECTED
 THE PRINTTIME OPTION HAS BEEN SELECTED
 CALCULATE FLOW BETWEEN ADJACENT CONSTANT-HEAD CELLS



                     BOUNDARY ARRAY FOR LAYER   1
 READING ON UNIT   13 WITH FORMAT: (FREE)              

          1     2     3     4     5     6     7     8     9    10    11    12    13    14    15    16    17    18    19    20
         21    22    23    24    25    26    27    28    29    30    31    32    33    34    35    36    37    38    39    40
         41    42    43    44    45    46    47    48    49    50    51    52    53    54    55    56    57    58    59    60
         61    62    63    64    65    66    67    68    69    70    71    72    73    74    75    76    77    78    79    80
         81    82    83    84    85    86    87    88    89    90    91    92    93    94    95    96    97    98    99   100
        101   102   103   104   105   106   107   108   109   110   111   112   113   114   115   116   117   118   119   120
        121   122   123   124   125   126   127   128   129   130   131   132   133   134   135   136   137   138   139   140
        141   142   143   144   145   146   147   148   149   150   151   152   153   154   155   156   157   158   159   160
        161   162   163   164   165   166   167   168   169   170   171   172   173   174   175   176   177   178   179   180
        181   182   183   184   185   186
 ............................................................................................................................
   1      0     0     0     1     1     1     1     1     1     1     1     1     1     1     1     1     1     1     1     1
          1     1     1     1     1     1     1     1     1     1     1     1     1     1     1     1     1     1     1     1
          1     1     1     1     1     1     1     1     1     1     1     1     1     1     1     1     1     1     1     1
          1     1     1     1     1     1     1     1     1     1     1     1     1     1     1     1     1     1     1     1
          1     1     1     1     1     1     1     1     1     1     1     1     1     1     1     1     1     1     1     1
          1     1     1     1     1     1     1     1     1     1     1     1     1     1     1     1     1     1     1     1
          1     1     1     1     1     1     1     1     1     1     1     1     1     1     1     1     1     1     1     1
          1     1     1     1     1     1     1     1     1     1     1     1     1     1     1     1     1     1     1     1
          1     1     1     1     1     1     1     1     1     1     1     1     1     1     1     1     1     1     1     1
          1     1     1     1     1     1
   2      0     0     0     1     1     1     1     1     1     1     1     1     1     1     1     1     1     1     1     1
          1     1     1     1     1     1     1     1     1     1     1     1     1     1     1     1     1     1     1     1
          1     1     1     1     1     1     1     1     1     1     1     1     1     1     1     1     1     1     1     1
          1     1     1     1     1     1     1     1     1     1     1     1     1     1     1     1     1     1     1     1
          1     1     1     1     1     1     1     1     1     1     1     1     1     1     1     1     1     1     1     1
          1     1     1     1     1     1     1     1     1     1     1     1     1     1     1     1     1     1     1     1
          1     1     1     1     1     1     1     1     1     1     1     1     1     1     1     1     1     1     1     1
          1     1     1     1     1     1     1     1     1     1     1     1     1     1     1     1     1     1     1     1
          1     1     1     1     1     1     1     1     1     1     1     1     1     1     1     1     1     1     1     1
          1     1     1     1     1     1
   3      0     0     0     0     1     1     1     1     1     1     1     1     1     1     1     1     1     1     1     1
          1     1     1     1     1     1     1     1     1     1     1     1     1     1     1     1     1     1     1     1
          1     1     1     1     1     1     1     1     1     1     1     1     1     1     1     1     1     1     1     1
          1     1     1     1     1     1     1     1     1     1     1     1     1     1     1     1     1     1     1     1
          1     1     1     1     1     1     1     1     1     1     1     1     1     1     1     1     1     1     1     1
          1     1     1     1     1     1     1     1     1     1     1     1     1     1     1     1     1     1     1     1
          1     1     1     1     1     1     1     1     1     1     1     1     1     1     1     1     1     1     1     1
          1     1     1     1     1     1     1     1     1     1     1     1     1     1     1     1     1     1     1     1
          1     1     1     1     1     1     1     1     1     1     1     1     1     1     1     1     1     1     1     1
          1     1     1     1     1     1
   4      0     0     0     0     1     1     1     1     1     1     1     1     1     1     1     1     1     1     1     1
          1     1     1     1     1     1     1     1     1     1     1     1     1     1     1     1     1     1     1     1
          1     1     1     1     1     1     1     1     1     1     1     1     1     1     1     1     1     1     1     1
          1     1     1     1     1     1     1     1     1     1     1     1     1     1     1     1     1     1     1     1
          1     1     1     1     1     1     1     1     1     1     1     1     1     1     1     1     1     1     1     1
          1     1     1     1     1     1     1     1     1     1     1     1     1     1     1     1     1     1     1     1
          1     1     1     1     1     1     1     1     1     1     1     1     1     1     1     1     1     1     1     1
          1     1     1     1     1     1     1     1     1     1     1     1     1     1     1     1     1     1     1     1
          1     1     1     1     1     1     1     1     1     1     1     1     1     1     1     1     1     1     1     1
          1     1     1     1     1     1
   5      0     0     0     0     1     1     1     1     1     1     1     1     1     1     1     1     1     1     1     1
          1     1     1     1     1     1     1     1     1     1     1     1     1     1     1     1     1     1     1     1
          1     1     1     1     1     1     1     1     1     1     1     1     1     1     1     1     1     1     1     1
          1     1     1     1     1     1     1     1     1     1     1     1     1     1     1     1     1     1     1     1
          1     1     1     1     1     1     1     1     1     1     1     1     1     1     1     1     1     1     1     1
          1     1     1     1     1     1     1     1     1     1     1     1     1     1     1     1     1     1     1     1
          1     1     1     1     1     1     1     1     1     1     1     1     1     1     1     1     1     1     1     1
          1     1     1     1     1     1     1     1     1     1     1     1     1     1     1     1     1     1     1     1
          1     1     1     1     1     1     1     1     1     1     1     1     1     1     1     1     1     1     1     1
          1     1     1     1     1     1
   6      0     0     0     0     1     1     1     1     1     1     1     1     1     1     1     1     1     1     1     1
          1     1     1     1     1     1     1     1     1     1     1     1     1     1     1     1     1     1     1     1
          1     1     1     1     1     1     1     1     1     1     1     1     1     1     1     1     1     1     1     1
          1     1     1     1     1     1     1     1     1     1     1     1     1     1     1     1     1     1     1     1
          1     1     1     1     1     1     1     1     1     1     1     1     1     1     1     1     1     1     1     1
          1     1     1     1     1     1     1     1     1     1     1     1     1     1     1     1     1     1     1     1
          1     1     1     1     1     1     1     1     1     1     1     1     1     1     1     1     1     1     1     1
          1     1     1     1     1     1     1     1     1     1     1     1     1     1     1     1     1     1     1     1
          1     1     1     1     1     1     1     1     1     1     1     1     1     1     1     1     1     1     1     1
          1     1     1     1     1     1
   7      0     0     0     0     0     1     1     1     1     1     1     1     1     1     1     1     1     1     1     1
          1     1     1     1     1     1     1     1     1     1     1     1     1     1     1     1     1     1     1     1
          1     1     1     1     1     1     1     1     1     1     1     1     1     1     1     1     1     1     1     1
          1     1     1     1     1     1     1     1     1     1     1     1     1     1     1     1     1     1     1     1
          1     1     1     1     1     1     1     1     1     1     1     1     1     1     1     1     1     1     1     1
          1     1     1     1     1     1     1     1     1     1     1     1     1     1     1     1     1     1     1     1
          1     1     1     1     1     1     1     1     1     1     1     1     1     1     1     1     1     1     1     1
          1     1     1     1     1     1     1     1     1     1     1     1     1     1     1     1     1     1     1     1
          1     1     1     1     1     1     1     1     1     1     1     1     1     1     1     1     1     1     1     1
          1     1     1     1     1     1
   8      0     0     0     0     0     1     1     1     1     1     1     1     1     1     1     1     1     1     1     1
          1     1     1     1     1     1     1     1     1     1     1     1     1     1     1     1     1     1     1     1
          1     1     1     1     1     1     1     1     1     1     1     1     1     1     1     1     1     1     1     1
          1     1     1     1     1     1     1     1     1     1     1     1     1     1     1     1     1     1     1     1
          1     1     1     1     1     1     1     1     1     1     1     1     1     1     1     1     1     1     1     1
          1     1     1     1     1     1     1     1     1     1     1     1     1     1     1     1     1     1     1     1
          1     1     1     1     1     1     1     1     1     1     1     1     1     1     1     1     1     1     1     1
          1     1     1     1     1     1     1     1     1     1     1     1     1     1     1     1     1     1     1     1
          1     1     1     1     1     1     1     1     1     1     1     1     1     1     1     1     1     1     1     1
          1     1     1     1     1     1
   9      0     0     0     0     0     1     1     1     1     1     1     1     1     1     1     1     1     1     1     1
          1     1     1     1     1     1     1     1     1     1     1     1     1     1     1     1     1     1     1     1
          1     1     1     1     1     1     1     1     1     1     1     1     1     1     1     1     1     1     1     1
          1     1     1     1     1     1     1     1     1     1     1     1     1     1     1     1     1     1     1     1
          1     1     1     1     1     1     1     1     1     1     1     1     1     1     1     1     1     1     1     1
          1     1     1     1     1     1     1     1     1     1     1     1     1     1     1     1     1     1     1     1
          1     1     1     1     1     1     1     1     1     1     1     1     1     1     1     1     1     1     1     1
          1     1     1     1     1     1     1     1     1     1     1     1     1     1     1     1     1     1     1     1
          1     1     1     1     1     1     1     1     1     1     1     1     1     1     1     1     1     1     1     1
          1     1     1     1     1     1
  10      0     0     0     0     0     0     1     1     1     1     1     1     1     1     1     1     1     1     1     1
          1     1     1     1     1     1     1     1     1     1     1     1     1     1     1     1     1     1     1     1
          1     1     1     1     1     1     1     1     1     1     1     1     1     1     1     1     1     1     1     1
          1     1     1     1     1     1     1     1     1     1     1     1     1     1     1     1     1     1     1     1
          1     1     1     1     1     1     1     1     1     1     1     1     1     1     1     1     1     1     1     1
          1     1     1     1     1     1     1     1     1     1     1     1     1     1     1     1     1     1     1     1
          1     1     1     1     1     1     1     1     1     1     1     1     1     1     1     1     1     1     1     1
          1     1     1     1     1     1     1     1     1     1     1     1     1     1     1     1     1     1     1     1
          1     1     1     1     1     1     1     1     1     1     1     1     1     1     1     1     1     1     1     1
          1     1     1     1     1     1
  11      0     0     0     0     0     0     1     1     1     1     1     1     1     1     1     1     1     1     1     1
          1     1     1     1     1     1     1     1     1     1     1     1     1     1     1     1     1     1     1     1
          1     1     1     1     1     1     1     1     1     1     1     1     1     1     1     1     1     1     1     1
          1     1     1     1     1     1     1     1     1     1     1     1     1     1     1     1     1     1     1     1
          1     1     1     1     1     1     1     1     1     1     1     1     1     1     1     1     1     1     1     1
          1     1     1     1     1     1     1     1     1     1     1     1     1     1     1     1     1     1     1     1
          1     1     1     1     1     1     1     1     1     1     1     1     1     1     1     1     1     1     1     1
          1     1     1     1     1     1     1     1     1     1     1     1     1     1     1     1     1     1     1     1
          1     1     1     1     1     1     1     1     1     1     1     1     1     1     1     1     1     1     1     1
          1     1     1     1     1     1
  12      0     0     0     0     0     0     1     1     1     1     1     1     1     1     1     1     1     1     1     1
          1     1     1     1     1     1     1     1     1     1     1     1     1     1     1     1     1     1     1     1
          1     1     1     1     1     1     1     1     1     1     1     1     1     1     1     1     1     1     1     1
          1     1     1     1     1     1     1     1     1     1     1     1     1     1     1     1     1     1     1     1
          1     1     1     1     1     1     1     1     1     1     1     1     1     1     1     1     1     1     1     1
          1     1     1     1     1     1     1     1     1     1     1     1     1     1     1     1     1     1     1     1
          1     1     1     1     1     1     1     1     1     1     1     1     1     1     1     1     1     1     1     1
          1     1     1     1     1     1     1     1     1     1     1     1     1     1     1     1     1     1     1     1
          1     1     1     1     1     1     1     1     1     1     1     1     1     1     1     1     1     1     1     1
          1     1     1     1     1     1
  13      0     0     0     0     0     0     1     1     1     1     1     1     1     1     1     1     1     1     1     1
          1     1     1     1     1     1     1     1     1     1     1     1     1     1     1     1     1     1     1     1
          1     1     1     1     1     1     1     1     1     1     1     1     1     1     1     1     1     1     1     1
          1     1     1     1     1     1     1     1     1     1     1     1     1     1     1     1     1     1     1     1
          1     1     1     1     1     1     1     1     1     1     1     1     1     1     1     1     1     1     1     1
          1     1     1     1     1     1     1     1     1     1     1     1     1     1     1     1     1     1     1     1
          1     1     1     1     1     1     1     1     1     1     1     1     1     1     1     1     1     1     1     1
          1     1     1     1     1     1     1     1     1     1     1     1     1     1     1     1     1     1     1     1
          1     1     1     1     1     1     1     1     1     1     1     1     1     1     1     1     1     1     1     1
          1     1     1     1     1     1
  14      0     0     0     0     0     0     1     1     1     1     1     1     1     1     1     1     1     1     1     1
          1     1     1     1     1     1     1     1     1     1     1     1     1     1     1     1     1     1     1     1
          1     1     1     1     1     1     1     1     1     1     1     1     1     1     1     1     1     1     1     1
          1     1     1     1     1     1     1     1     1     1     1     1     1     1     1     1     1     1     1     1
          1     1     1     1     1     1     1     1     1     1     1     1     1     1     1     1     1     1     1     1
          1     1     1     1     1     1     1     1     1     1     1     1     1     1     1     1     1     1     1     1
          1     1     1     1     1     1     1     1     1     1     1     1     1     1     1     1     1     1     1     1
          1     1     1     1     1     1     1     1     1     1     1     1     1     1     1     1     1     1     1     1
          1     1     1     1     1     1     1     1     1     1     1     1     1     1     1     1     1     1     1     1
          1     1     1     1     1     1
  15      0     0     0     0     0     0     1     1     1     1     1     1     1     1     1     1     1     1     1     1
          1     1     1     1     1     1     1     1     1     1     1     1     1     1     1     1     1     1     1     1
          1     1     1     1     1     1     1     1     1     1     1     1     1     1     1     1     1     1     1     1
          1     1     1     1     1     1     1     1     1     1     1     1     1     1     1     1     1     1     1     1
          1     1     1     1     1     1     1     1     1     1     1     1     1     1     1     1     1     1     1     1
          1     1     1     1     1     1     1     1     1     1     1     1     1     1     1     1     1     1     1     1
          1     1     1     1     1     1     1     1     1     1     1     1     1     1     1     1     1     1     1     1
          1     1     1     1     1     1     1     1     1     1     1     1     1     1     1     1     1     1     1     1
          1     1     1     1     1     1     1     1     1     1     1     1     1     1     1     1     1     1     1     1
          1     1     1     1     1     1
  16      0     0     0     0     0     0     1     1     1     1     1     1     1     1     1     1     1     1     1     1
          1     1     1     1     1     1     1     1     1     1     1     1     1     1     1     1     1     1     1     1
          1     1     1     1     1     1     1     1     1     1     1     1     1     1     1     1     1     1     1     1
          1     1     1     1     1     1     1     1     1     1     1     1     1     1     1     1     1     1     1     1
          1     1     1     1     1     1     1     1     1     1     1     1     1     1     1     1     1     1     1     1
          1     1     1     1     1     1     1     1     1     1     1     1     1     1     1     1     1     1     1     1
          1     1     1     1     1     1     1     1     1     1     1     1     1     1     1     1     1     1     1     1
          1     1     1     1     1     1     1     1     1     1     1     1     1     1     1     1     1     1     1     1
          1     1     1     1     1     1     1     1     1     1     1     1     1     1     1     1     1     1     1     1
          1     1     1     1     1     1
  17      0     0     0     0     0     0     0     1     1     1     1     1     1     1     1     1     1     1     1     1
          1     1     1     1     1     1     1     1     1     1     1     1     1     1     1     1     1     1     1     1
          1     1     1     1     1     1     1     1     1     1     1     1     1     1     1     1     1     1     1     1
          1     1     1     1     1     1     1     1     1     1     1     1     1     1     1     1     1     1     1     1
          1     1     1     1     1     1     1     1     1     1     1     1     1     1     1     1     1     1     1     1
          1     1     1     1     1     1     1     1     1     1     1     1     1     1     1     1     1     1     1     1
          1     1     1     1     1     1     1     1     1     1     1     1     1     1     1     1     1     1     1     1
          1     1     1     1     1     1     1     1     1     1     1     1     1     1     1     1     1     1     1     1
          1     1     1     1     1     1     1     1     1     1     1     1     1     1     1     1     1     1     1     1
          1     1     1     1     1     1
  18      0     0     0     0     0     0     0     1     1     1     1     1     1     1     1     1     1     1     1     1
          1     1     1     1     1     1     1     1     1     1     1     1     1     1     1     1     1     1     1     1
          1     1     1     1     1     1     1     1     1     1     1     1     1     1     1     1     1     1     1     1
          1     1     1     1     1     1     1     1     1     1     1     1     1     1     1     1     1     1     1     1
          1     1     1     1     1     1     1     1     1     1     1     1     1     1     1     1     1     1     1     1
          1     1     1     1     1     1     1     1     1     1     1     1     1     1     1     1     1     1     1     1
          1     1     1     1     1     1     1     1     1     1     1     1     1     1     1     1     1     1     1     1
          1     1     1     1     1     1     1     1     1     1     1     1     1     1     1     1     1     1     1     1
          1     1     1     1     1     1     1     1     1     1     1     1     1     1     1     1     1     1     1     1
          1     1     1     1     1     1
  19      0     0     0     0     0     0     0     1     1     1     1     1     1     1     1     1     1     1     1     1
          1     1     1     1     1     1     1     1     1     1     1     1     1     1     1     1     1     1     1     1
          1     1     1     1     1     1     1     1     1     1     1     1     1     1     1     1     1     1     1     1
          1     1     1     1     1     1     1     1     1     1     1     1     1     1     1     1     1     1     1     1
          1     1     1     1     1     1     1     1     1     1     1     1     1     1     1     1     1     1     1     1
          1     1     1     1     1     1     1     1     1     1     1     1     1     1     1     1     1     1     1     1
          1     1     1     1     1     1     1     1     1     1     1     1     1     1     1     1     1     1     1     1
          1     1     1     1     1     1     1     1     1     1     1     1     1     1     1     1     1     1     1     1
          1     1     1     1     1     1     1     1     1     1     1     1     1     1     1     1     1     1     1     1
          1     1     1     1     1     1
  20      0     0     0     0     0     0     0     1     1     1     1     1     1     1     1     1     1     1     1     1
          1     1     1     1     1     1     1     1     1     1     1     1     1     1     1     1     1     1     1     1
          1     1     1     1     1     1     1     1     1     1     1     1     1     1     1     1     1     1     1     1
          1     1     1     1     1     1     1     1     1     1     1     1     1     1     1     1     1     1     1     1
          1     1     1     1     1     1     1     1     1     1     1     1     1     1     1     1     1     1     1     1
          1     1     1     1     1     1     1     1     1     1     1     1     1     1     1     1     1     1     1     1
          1     1     1     1     1     1     1     1     1     1     1     1     1     1     1     1     1     1     1     1
          1     1     1     1     1     1     1     1     1     1     1     1     1     1     1     1     1     1     1     1
          1     1     1     1     1     1     1     1     1     1     1     1     1     1     1     1     1     1     1     1
          1     1     1     1     1     1
  21      0     0     0     0     0     0     0     1     1     1     1     1     1     1     1     1     1     1     1     1
          1     1     1     1     1     1     1     1     1     1     1     1     1     1     1     1     1     1     1     1
          1     1     1     1     1     1     1     1     1     1     1     1     1     1     1     1     1     1     1     1
          1     1     1     1     1     1     1     1     1     1     1     1     1     1     1     1     1     1     1     1
          1     1     1     1     1     1     1     1     1     1     1     1     1     1     1     1     1     1     1     1
          1     1     1     1     1     1     1     1     1     1     1     1     1     1     1     1     1     1     1     1
          1     1     1     1     1     1     1     1     1     1     1     1     1     1     1     1     1     1     1     1
          1     1     1     1     1     1     1     1     1     1     1     1     1     1     1     1     1     1     1     1
          1     1     1     1     1     1     1     1     1     1     1     1     1     1     1     1     1     1     1     1
          1     1     1     1     1     1
  22      0     0     0     0     0     0     0     1     1     1     1     1     1     1     1     1     1     1     1     1
          1     1     1     1     1     1     1     1     1     1     1     1     1     1     1     1     1     1     1     1
          1     1     1     1     1     1     1     1     1     1     1     1     1     1     1     1     1     1     1     1
          1     1     1     1     1     1     1     1     1     1     1     1     1     1     1     1     1     1     1     1
          1     1     1     1     1     1     1     1     1     1     1     1     1     1     1     1     1     1     1     1
          1     1     1     1     1     1     1     1     1     1     1     1     1     1     1     1     1     1     1     1
          1     1     1     1     1     1     1     1     1     1     1     1     1     1     1     1     1     1     1     1
          1     1     1     1     1     1     1     1     1     1     1     1     1     1     1     1     1     1     1     1
          1     1     1     1     1     1     1     1     1     1     1     1     1     1     1     1     1     1     1     1
          1     1     1     1     1     1
  23      0     0     0     0     0     0     0     1     1     1     1     1     1     1     1     1     1     1     1     1
          1     1     1     1     1     1     1     1     1     1     1     1     1     1     1     1     1     1     1     1
          1     1     1     1     1     1     1     1     1     1     1     1     1     1     1     1     1     1     1     1
          1     1     1     1     1     1     1     1     1     1     1     1     1     1     1     1     1     1     1     1
          1     1     1     1     1     1     1     1     1     1     1     1     1     1     1     1     1     1     1     1
          1     1     1     1     1     1     1     1     1     1     1     1     1     1     1     1     1     1     1     1
          1     1     1     1     1     1     1     1     1     1     1     1     1     1     1     1     1     1     1     1
          1     1     1     1     1     1     1     1     1     1     1     1     1     1     1     1     1     1     1     1
          1     1     1     1     1     1     1     1     1     1     1     1     1     1     1     1     1     1     1     1
          1     1     1     1     1     1
  24      0     0     0     0     0     0     0     1     1     1     1     1     1     1     1     1     1     1     1     1
          1     1     1     1     1     1     1     1     1     1     1     1     1     1     1     1     1     1     1     1
          1     1     1     1     1     1     1     1     1     1     1     1     1     1     1     1     1     1     1     1
          1     1     1     1     1     1     1     1     1     1     1     1     1     1     1     1     1     1     1     1
          1     1     1     1     1     1     1     1     1     1     1     1     1     1     1     1     1     1     1     1
          1     1     1     1     1     1     1     1     1     1     1     1     1     1     1     1     1     1     1     1
          1     1     1     1     1     1     1     1     1     1     1     1     1     1     1     1     1     1     1     1
          1     1     1     1     1     1     1     1     1     1     1     1     1     1     1     1     1     1     1     1
          1     1     1     1     1     1     1     1     1     1     1     1     1     1     1     1     1     1     1     1
          1     1     1     1     1     1
  25      0     0     0     0     0     0     0     0     1     1     1     1     1     1     1     1     1     1     1     1
          1     1     1     1     1     1     1     1     1     1     1     1     1     1     1     1     1     1     1     1
          1     1     1     1     1     1     1     1     1     1     1     1     1     1     1     1     1     1     1     1
          1     1     1     1     1     1     1     1     1     1     1     1     1     1     1     1     1     1     1     1
          1     1     1     1     1     1     1     1     1     1     1     1     1     1     1     1     1     1     1     1
          1     1     1     1     1     1     1     1     1     1     1     1     1     1     1     1     1     1     1     1
          1     1     1     1     1     1     1     1     1     1     1     1     1     1     1     1     1     1     1     1
          1     1     1     1     1     1     1     1     1     1     1     1     1     1     1     1     1     1     1     1
          1     1     1     1     1     1     1     1     1     1     1     1     1     1     1     1     1     1     1     1
          1     1     1     1     1     1
  26      0     0     0     0     0     0     0     0     1     1     1     1     1     1     1     1     1     1     1     1
          1     1     1     1     1     1     1     1     1     1     1     1     1     1     1     1     1     1     1     1
          1     1     1     1     1     1     1     1     1     1     1     1     1     1     1     1     1     1     1     1
          1     1     1     1     1     1     1     1     1     1     1     1     1     1     1     1     1     1     1     1
          1     1     1     1     1     1     1     1     1     1     1     1     1     1     1     1     1     1     1     1
          1     1     1     1     1     1     1     1     1     1     1     1     1     1     1     1     1     1     1     1
          1     1     1     1     1     1     1     1     1     1     1     1     1     1     1     1     1     1     1     1
          1     1     1     1     1     1     1     1     1     1     1     1     1     1     1     1     1     1     1     1
          1     1     1     1     1     1     1     1     1     1     1     1     1     1     1     1     1     1     1     1
          1     1     1     1     1     1
  27      0     0     0     0     0     0     0     0     1     1     1     1     1     1     1     1     1     1     1     1
          1     1     1     1     1     1     1     1     1     1     1     1     1     1     1     1     1     1     1     1
          1     1     1     1     1     1     1     1     1     1     1     1     1     1     1     1     1     1     1     1
          1     1     1     1     1     1     1     1     1     1     1     1     1     1     1     1     1     1     1     1
          1     1     1     1     1     1     1     1     1     1     1     1     1     1     1     1     1     1     1     1
          1     1     1     1     1     1     1     1     1     1     1     1     1     1     1     1     1     1     1     1
          1     1     1     1     1     1     1     1     1     1     1     1     1     1     1     1     1     1     1     1
          1     1     1     1     1     1     1     1     1     1     1     1     1     1     1     1     1     1     1     1
          1     1     1     1     1     1     1     1     1     1     1     1     1     1     1     1     1     1     1     1
          1     1     1     1     1     1
  28      0     0     0     0     0     0     0     0     1     1     1     1     1     1     1     1     1     1     1     1
          1     1     1     1     1     1     1     1     1     1     1     1     1     1     1     1     1     1     1     1
          1     1     1     1     1     1     1     1     1     1     1     1     1     1     1     1     1     1     1     1
          1     1     1     1     1     1     1     1     1     1     1     1     1     1     1     1     1     1     1     1
          1     1     1     1     1     1     1     1     1     1     1     1     1     1     1     1     1     1     1     1
          1     1     1     1     1     1     1     1     1     1     1     1     1     1     1     1     1     1     1     1
          1     1     1     1     1     1     1     1     1     1     1     1     1     1     1     1     1     1     1     1
          1     1     1     1     1     1     1     1     1     1     1     1     1     1     1     1     1     1     1     1
          1     1     1     1     1     1     1     1     1     1     1     1     1     1     1     1     1     1     1     1
          1     1     1     1     1     1
  29      0     0     0     0     0     0     0     0     1     1     1     1     1     1     1     1     1     1     1     1
          1     1     1     1     1     1     1     1     1     1     1     1     1     1     1     1     1     1     1     1
          1     1     1     1     1     1     1     1     1     1     1     1     1     1     1     1     1     1     1     1
          1     1     1     1     1     1     1     1     1     1     1     1     1     1     1     1     1     1     1     1
          1     1     1     1     1     1     1     1     1     1     1     1     1     1     1     1     1     1     1     1
          1     1     1     1     1     1     1     1     1     1     1     1     1     1     1     1     1     1     1     1
          1     1     1     1     1     1     1     1     1     1     1     1     1     1     1     1     1     1     1     1
          1     1     1     1     1     1     1     1     1     1     1     1     1     1     1     1     1     1     1     1
          1     1     1     1     1     1     1     1     1     1     1     1     1     1     1     1     1     1     1     1
          1     1     1     1     1     1
  30      0     0     0     0     0     0     0     0     1     1     1     1     1     1     1     1     1     1     1     1
          1     1     1     1     1     1     1     1     1     1     1     1     1     1     1     1     1     1     1     1
          1     1     1     1     1     1     1     1     1     1     1     1     1     1     1     1     1     1     1     1
          1     1     1     1     1     1     1     1     1     1     1     1     1     1     1     1     1     1     1     1
          1     1     1     1     1     1     1     1     1     1     1     1     1     1     1     1     1     1     1     1
          1     1     1     1     1     1     1     1     1     1     1     1     1     1     1     1     1     1     1     1
          1     1     1     1     1     1     1     1     1     1     1     1     1     1     1     1     1     1     1     1
          1     1     1     1     1     1     1     1     1     1     1     1     1     1     1     1     1     1     1     1
          1     1     1     1     1     1     1     1     1     1     1     1     1     1     1     1     1     1     1     1
          1     1     1     1     1     1
  31      0     0     0     0     0     0     0     0     0     1     1     1     1     1     1     1     1     1     1     1
          1     1     1     1     1     1     1     1     1     1     1     1     1     1     1     1     1     1     1     1
          1     1     1     1     1     1     1     1     1     1     1     1     1     1     1     1     1     1     1     1
          1     1     1     1     1     1     1     1     1     1     1     1     1     1     1     1     1     1     1     1
          1     1     1     1     1     1     1     1     1     1     1     1     1     1     1     1     1     1     1     1
          1     1     1     1     1     1     1     1     1     1     1     1     1     1     1     1     1     1     1     1
          1     1     1     1     1     1     1     1     1     1     1     1     1     1     1     1     1     1     1     1
          1     1     1     1     1     1     1     1     1     1     1     1     1     1     1     1     1     1     1     1
          1     1     1     1     1     1     1     1     1     1     1     1     1     1     1     1     1     1     1     1
          1     1     1     1     1     1
  32      0     0     0     0     0     0     0     0     0     1     1     1     1     1     1     1     1     1     1     1
          1     1     1     1     1     1     1     1     1     1     1     1     1     1     1     1     1     1     1     1
          1     1     1     1     1     1     1     1     1     1     1     1     1     1     1     1     1     1     1     1
          1     1     1     1     1     1     1     1     1     1     1     1     1     1     1     1     1     1     1     1
          1     1     1     1     1     1     1     1     1     1     1     1     1     1     1     1     1     1     1     1
          1     1     1     1     1     1     1     1     1     1     1     1     1     1     1     1     1     1     1     1
          1     1     1     1     1     1     1     1     1     1     1     1     1     1     1     1     1     1     1     1
          1     1     1     1     1     1     1     1     1     1     1     1     1     1     1     1     1     1     1     1
          1     1     1     1     1     1     1     1     1     1     1     1     1     1     1     1     1     1     1     1
          1     1     1     1     1     1
  33      0     0     0     0     0     0     0     0     0     1     1     1     1     1     1     1     1     1     1     1
          1     1     1     1     1     1     1     1     1     1     1     1     1     1     1     1     1     1     1     1
          1     1     1     1     1     1     1     1     1     1     1     1     1     1     1     1     1     1     1     1
          1     1     1     1     1     1     1     1     1     1     1     1     1     1     1     1     1     1     1     1
          1     1     1     1     1     1     1     1     1     1     1     1     1     1     1     1     1     1     1     1
          1     1     1     1     1     1     1     1     1     1     1     1     1     1     1     1     1     1     1     1
          1     1     1     1     1     1     1     1     1     1     1     1     1     1     1     1     1     1     1     1
          1     1     1     1     1     1     1     1     1     1     1     1     1     1     1     1     1     1     1     1
          1     1     1     1     1     1     1     1     1     1     1     1     1     1     1     1     1     1     1     1
          1     1     1     1     1     1
  34      0     0     0     0     0     0     0     0     0     1     1     1     1     1     1     1     1     1     1     1
          1     1     1     1     1     1     1     1     1     1     1     1     1     1     1     1     1     1     1     1
          1     1     1     1     1     1     1     1     1     1     1     1     1     1     1     1     1     1     1     1
          1     1     1     1     1     1     1     1     1     1     1     1     1     1     1     1     1     1     1     1
          1     1     1     1     1     1     1     1     1     1     1     1     1     1     1     1     1     1     1     1
          1     1     1     1     1     1     1     1     1     1     1     1     1     1     1     1     1     1     1     1
          1     1     1     1     1     1     1     1     1     1     1     1     1     1     1     1     1     1     1     1
          1     1     1     1     1     1     1     1     1     1     1     1     1     1     1     1     1     1     1     1
          1     1     1     1     1     1     1     1     1     1     1     1     1     1     1     1     1     1     1     1
          1     1     1     1     1     1
  35      0     0     0     0     0     0     0     0     0     1     1     1     1     1     1     1     1     1     1     1
          1     1     1     1     1     1     1     1     1     1     1     1     1     1     1     1     1     1     1     1
          1     1     1     1     1     1     1     1     1     1     1     1     1     1     1     1     1     1     1     1
          1     1     1     1     1     1     1     1     1     1     1     1     1     1     1     1     1     1     1     1
          1     1     1     1     1     1     1     1     1     1     1     1     1     1     1     1     1     1     1     1
          1     1     1     1     1     1     1     1     1     1     1     1     1     1     1     1     1     1     1     1
          1     1     1     1     1     1     1     1     1     1     1     1     1     1     1     1     1     1     1     1
          1     1     1     1     1     1     1     1     1     1     1     1     1     1     1     1     1     1     1     1
          1     1     1     1     1     1     1     1     1     1     1     1     1     1     1     1     1     1     1     1
          1     1     1     1     1     1
  36      0     0     0     0     0     0     0     0     0     1     1     1     1     1     1     1     1     1     1     1
          1     1     1     1     1     1     1     1     1     1     1     1     1     1     1     1     1     1     1     1
          1     1     1     1     1     1     1     1     1     1     1     1     1     1     1     1     1     1     1     1
          1     1     1     1     1     1     1     1     1     1     1     1     1     1     1     1     1     1     1     1
          1     1     1     1     1     1     1     1     1     1     1     1     1     1     1     1     1     1     1     1
          1     1     1     1     1     1     1     1     1     1     1     1     1     1     1     1     1     1     1     1
          1     1     1     1     1     1     1     1     1     1     1     1     1     1     1     1     1     1     1     1
          1     1     1     1     1     1     1     1     1     1     1     1     1     1     1     1     1     1     1     1
          1     1     1     1     1     1     1     1     1     1     1     1     1     1     1     1     1     1     1     1
          1     1     1     1     1     1
  37      0     0     0     0     0     0     0     0     0     1     1     1     1     1     1     1     1     1     1     1
          1     1     1     1     1     1     1     1     1     1     1     1     1     1     1     1     1     1     1     1
          1     1     1     1     1     1     1     1     1     1     1     1     1     1     1     1     1     1     1     1
          1     1     1     1     1     1     1     1     1     1     1     1     1     1     1     1     1     1     1     1
          1     1     1     1     1     1     1     1     1     1     1     1     1     1     1     1     1     1     1     1
          1     1     1     1     1     1     1     1     1     1     1     1     1     1     1     1     1     1     1     1
          1     1     1     1     1     1     1     1     1     1     1     1     1     1     1     1     1     1     1     1
          1     1     1     1     1     1     1     1     1     1     1     1     1     1     1     1     1     1     1     1
          1     1     1     1     1     1     1     1     1     1     1     1     1     1     1     1     1     1     1     1
          1     1     1     1     1     1
  38      0     0     0     0     0     0     0     0     0     0     1     1     1     1     1     1     1     1     1     1
          1     1     1     1     1     1     1     1     1     1     1     1     1     1     1     1     1     1     1     1
          1     1     1     1     1     1     1     1     1     1     1     1     1     1     1     1     1     1     1     1
          1     1     1     1     1     1     1     1     1     1     1     1     1     1     1     1     1     1     1     1
          1     1     1     1     1     1     1     1     1     1     1     1     1     1     1     1     1     1     1     1
          1     1     1     1     1     1     1     1     1     1     1     1     1     1     1     1     1     1     1     1
          1     1     1     1     1     1     1     1     1     1     1     1     1     1     1     1     1     1     1     1
          1     1     1     1     1     1     1     1     1     1     1     1     1     1     1     1     1     1     1     1
          1     1     1     1     1     1     1     1     1     1     1     1     1     1     1     1     1     1     1     1
          1     1     1     1     1     1
  39      0     0     0     0     0     0     0     0     0     0     1     1     1     1     1     1     1     1     1     1
          1     1     1     1     1     1     1     1     1     1     1     1     1     1     1     1     1     1     1     1
          1     1     1     1     1     1     1     1     1     1     1     1     1     1     1     1     1     1     1     1
          1     1     1     1     1     1     1     1     1     1     1     1     1     1     1     1     1     1     1     1
          1     1     1     1     1     1     1     1     1     1     1     1     1     1     1     1     1     1     1     1
          1     1     1     1     1     1     1     1     1     1     1     1     1     1     1     1     1     1     1     1
          1     1     1     1     1     1     1     1     1     1     1     1     1     1     1     1     1     1     1     1
          1     1     1     1     1     1     1     1     1     1     1     1     1     1     1     1     1     1     1     1
          1     1     1     1     1     1     1     1     1     1     1     1     1     1     1     1     1     1     1     1
          1     1     1     1     1     1
  40      0     0     0     0     0     0     0     0     0     0     1     1     1     1     1     1     1     1     1     1
          1     1     1     1     1     1     1     1     1     1     1     1     1     1     1     1     1     1     1     1
          1     1     1     1     1     1     1     1     1     1     1     1     1     1     1     1     1     1     1     1
          1     1     1     1     1     1     1     1     1     1     1     1     1     1     1     1     1     1     1     1
          1     1     1     1     1     1     1     1     1     1     1     1     1     1     1     1     1     1     1     1
          1     1     1     1     1     1     1     1     1     1     1     1     1     1     1     1     1     1     1     1
          1     1     1     1     1     1     1     1     1     1     1     1     1     1     1     1     1     1     1     1
          1     1     1     1     1     1     1     1     1     1     1     1     1     1     1     1     1     1     1     1
          1     1     1     1     1     1     1     1     1     1     1     1     1     1     1     1     1     1     1     1
          1     1     1     1     1     1
  41      0     0     0     0     0     0     0     0     0     0     1     1     1     1     1     1     1     1     1     1
          1     1     1     1     1     1     1     1     1     1     1     1     1     1     1     1     1     1     1     1
          1     1     1     1     1     1     1     1     1     1     1     1     1     1     1     1     1     1     1     1
          1     1     1     1     1     1     1     1     1     1     1     1     1     1     1     1     1     1     1     1
          1     1     1     1     1     1     1     1     1     1     1     1     1     1     1     1     1     1     1     1
          1     1     1     1     1     1     1     1     1     1     1     1     1     1     1     1     1     1     1     1
          1     1     1     1     1     1     1     1     1     1     1     1     1     1     1     1     1     1     1     1
          1     1     1     1     1     1     1     1     1     1     1     1     1     1     1     1     1     1     1     1
          1     1     1     1     1     1     1     1     1     1     1     1     1     1     1     1     1     1     1     1
          1     1     1     1     1     1
  42      0     0     0     0     0     0     0     0     0     0     1     1     1     1     1     1     1     1     1     1
          1     1     1     1     1     1     1     1     1     1     1     1     1     1     1     1     1     1     1     1
          1     1     1     1     1     1     1     1     1     1     1     1     1     1     1     1     1     1     1     1
          1     1     1     1     1     1     1     1     1     1     1     1     1     1     1     1     1     1     1     1
          1     1     1     1     1     1     1     1     1     1     1     1     1     1     1     1     1     1     1     1
          1     1     1     1     1     1     1     1     1     1     1     1     1     1     1     1     1     1     1     1
          1     1     1     1     1     1     1     1     1     1     1     1     1     1     1     1     1     1     1     1
          1     1     1     1     1     1     1     1     1     1     1     1     1     1     1     1     1     1     1     1
          1     1     1     1     1     1     1     1     1     1     1     1     1     1     1     1     1     1     1     1
          1     1     1     1     1     1
  43      0     0     0     0     0     0     0     0     0     0     0     1     1     1     1     1     1     1     1     1
          1     1     1     1     1     1     1     1     1     1     1     1     1     1     1     1     1     1     1     1
          1     1     1     1     1     1     1     1     1     1     1     1     1     1     1     1     1     1     1     1
          1     1     1     1     1     1     1     1     1     1     1     1     1     1     1     1     1     1     1     1
          1     1     1     1     1     1     1     1     1     1     1     1     1     1     1     1     1     1     1     1
          1     1     1     1     1     1     1     1     1     1     1     1     1     1     1     1     1     1     1     1
          1     1     1     1     1     1     1     1     1     1     1     1     1     1     1     1     1     1     1     1
          1     1     1     1     1     1     1     1     1     1     1     1     1     1     1     1     1     1     1     1
          1     1     1     1     1     1     1     1     1     1     1     1     1     1     1     1     1     1     1     1
          1     1     1     1     1     1
  44      0     0     0     0     0     0     0     0     0     0     0     1     1     1     1     1     1     1     1     1
          1     1     1     1     1     1     1     1     1     1     1     1     1     1     1     1     1     1     1     1
          1     1     1     1     1     1     1     1     1     1     1     1     1     1     1     1     1     1     1     1
          1     1     1     1     1     1     1     1     1     1     1     1     1     1     1     1     1     1     1     1
          1     1     1     1     1     1     1     1     1     1     1     1     1     1     1     1     1     1     1     1
          1     1     1     1     1     1     1     1     1     1     1     1     1     1     1     1     1     1     1     1
          1     1     1     1     1     1     1     1     1     1     1     1     1     1     1     1     1     1     1     1
          1     1     1     1     1     1     1     1     1     1     1     1     1     1     1     1     1     1     1     1
          1     1     1     1     1     1     1     1     1     1     1     1     1     1     1     1     1     1     1     1
          1     1     1     1     1     1
  45      0     0     0     0     0     0     0     0     0     0     0     1     1     1     1     1     1     1     1     1
          1     1     1     1     1     1     1     1     1     1     1     1     1     1     1     1     1     1     1     1
          1     1     1     1     1     1     1     1     1     1     1     1     1     1     1     1     1     1     1     1
          1     1     1     1     1     1     1     1     1     1     1     1     1     1     1     1     1     1     1     1
          1     1     1     1     1     1     1     1     1     1     1     1     1     1     1     1     1     1     1     1
          1     1     1     1     1     1     1     1     1     1     1     1     1     1     1     1     1     1     1     1
          1     1     1     1     1     1     1     1     1     1     1     1     1     1     1     1     1     1     1     1
          1     1     1     1     1     1     1     1     1     1     1     1     1     1     1     1     1     1     1     1
          1     1     1     1     1     1     1     1     1     1     1     1     1     1     1     1     1     1     1     1
          1     1     1     1     1     1
  46      0     0     0     0     0     0     0     0     0     0     0     1     1     1     1     1     1     1     1     1
          1     1     1     1     1     1     1     1     1     1     1     1     1     1     1     1     1     1     1     1
          1     1     1     1     1     1     1     1     1     1     1     1     1     1     1     1     1     1     1     1
          1     1     1     1     1     1     1     1     1     1     1     1     1     1     1     1     1     1     1     1
          1     1     1     1     1     1     1     1     1     1     1     1     1     1     1     1     1     1     1     1
          1     1     1     1     1     1     1     1     1     1     1     1     1     1     1     1     1     1     1     1
          1     1     1     1     1     1     1     1     1     1     1     1     1     1     1     1     1     1     1     1
          1     1     1     1     1     1     1     1     1     1     1     1     1     1     1     1     1     1     1     1
          1     1     1     1     1     1     1     1     1     1     1     1     1     1     1     1     1     1     1     1
          1     1     1     1     1     1
  47      0     0     0     0     0     0     0     0     0     0     0     1     1     1     1     1     1     1     1     1
          1     1     1     1     1     1     1     1     1     1     1     1     1     1     1     1     1     1     1     1
          1     1     1     1     1     1     1     1     1     1     1     1     1     1     1     1     1     1     1     1
          1     1     1     1     1     1     1     1     1     1     1     1     1     1     1     1     1     1     1     1
          1     1     1     1     1     1     1     1     1     1     1     1     1     1     1     1     1     1     1     1
          1     1     1     1     1     1     1     1     1     1     1     1     1     1     1     1     1     1     1     1
          1     1     1     1     1     1     1     1     1     1     1     1     1     1     1     1     1     1     1     1
          1     1     1     1     1     1     1     1     1     1     1     1     1     1     1     1     1     1     1     1
          1     1     1     1     1     1     1     1     1     1     1     1     1     1     1     1     1     1     1     1
          1     1     1     1     1     1
  48      0     0     0     0     0     0     0     0     0     0     0     0     1     1     1     1     1     1     1     1
          1     1     1     1     1     1     1     1     1     1     1     1     1     1     1     1     1     1     1     1
          1     1     1     1     1     1     1     1     1     1     1     1     1     1     1     1     1     1     1     1
          1     1     1     1     1     1     1     1     1     1     1     1     1     1     1     1     1     1     1     1
          1     1     1     1     1     1     1     1     1     1     1     1     1     1     1     1     1     1     1     1
          1     1     1     1     1     1     1     1     1     1     1     1     1     1     1     1     1     1     1     1
          1     1     1     1     1     1     1     1     1     1     1     1     1     1     1     1     1     1     1     1
          1     1     1     1     1     1     1     1     1     1     1     1     1     1     1     1     1     1     1     1
          1     1     1     1     1     1     1     1     1     1     1     1     1     1     1     1     1     1     1     1
          1     1     1     1     1     1
  49      0     0     0     0     0     0     0     0     0     0     0     0     1     1     1     1     1     1     1     1
          1     1     1     1     1     1     1     1     1     1     1     1     1     1     1     1     1     1     1     1
          1     1     1     1     1     1     1     1     1     1     1     1     1     1     1     1     1     1     1     1
          1     1     1     1     1     1     1     1     1     1     1     1     1     1     1     1     1     1     1     1
          1     1     1     1     1     1     1     1     1     1     1     1     1     1     1     1     1     1     1     1
          1     1     1     1     1     1     1     1     1     1     1     1     1     1     1     1     1     1     1     1
          1     1     1     1     1     1     1     1     1     1     1     1     1     1     1     1     1     1     1     1
          1     1     1     1     1     1     1     1     1     1     1     1     1     1     1     1     1     1     1     1
          1     1     1     1     1     1     1     1     1     1     1     1     1     1     1     1     1     1     1     1
          1     1     1     1     1     1
  50      0     0     0     0     0     0     0     0     0     0     0     0     1     1     1     1     1     1     1     1
          1     1     1     1     1     1     1     1     1     1     1     1     1     1     1     1     1     1     1     1
          1     1     1     1     1     1     1     1     1     1     1     1     1     1     1     1     1     1     1     1
          1     1     1     1     1     1     1     1     1     1     1     1     1     1     1     1     1     1     1     1
          1     1     1     1     1     1     1     1     1     1     1     1     1     1     1     1     1     1     1     1
          1     1     1     1     1     1     1     1     1     1     1     1     1     1     1     1     1     1     1     1
          1     1     1     1     1     1     1     1     1     1     1     1     1     1     1     1     1     1     1     1
          1     1     1     1     1     1     1     1     1     1     1     1     1     1     1     1     1     1     1     1
          1     1     1     1     1     1     1     1     1     1     1     1     1     1     1     1     1     1     1     1
          1     1     1     1     1     1
  51      0     0     0     0     0     0     0     0     0     0     0     0     1     1     1     1     1     1     1     1
          1     1     1     1     1     1     1     1     1     1     1     1     1     1     1     1     1     1     1     1
          1     1     1     1     1     1     1     1     1     1     1     1     1     1     1     1     1     1     1     1
          1     1     1     1     1     1     1     1     1     1     1     1     1     1     1     1     1     1     1     1
          1     1     1     1     1     1     1     1     1     1     1     1     1     1     1     1     1     1     1     1
          1     1     1     1     1     1     1     1     1     1     1     1     1     1     1     1     1     1     1     1
          1     1     1     1     1     1     1     1     1     1     1     1     1     1     1     1     1     1     1     1
          1     1     1     1     1     1     1     1     1     1     1     1     1     1     1     1     1     1     1     1
          1     1     1     1     1     1     1     1     1     1     1     1     1     1     1     1     1     1     1     1
          1     1     1     1     1     1
  52      0     0     0     0     0     0     0     0     0     0     0     0     1     1     1     1     1     1     1     1
          1     1     1     1     1     1     1     1     1     1     1     1     1     1     1     1     1     1     1     1
          1     1     1     1     1     1     1     1     1     1     1     1     1     1     1     1     1     1     1     1
          1     1     1     1     1     1     1     1     1     1     1     1     1     1     1     1     1     1     1     1
          1     1     1     1     1     1     1     1     1     1     1     1     1     1     1     1     1     1     1     1
          1     1     1     1     1     1     1     1     1     1     1     1     1     1     1     1     1     1     1     1
          1     1     1     1     1     1     1     1     1     1     1     1     1     1     1     1     1     1     1     1
          1     1     1     1     1     1     1     1     1     1     1     1     1     1     1     1     1     1     1     1
          1     1     1     1     1     1     1     1     1     1     1     1     1     1     1     1     1     1     1     1
          1     1     1     1     1     1
  53      0     0     0     0     0     0     0     0     0     0     0     0     0     1     1     1     1     1     1     1
          1     1     1     1     1     1     1     1     1     1     1     1     1     1     1     1     1     1     1     1
          1     1     1     1     1     1     1     1     1     1     1     1     1     1     1     1     1     1     1     1
          1     1     1     1     1     1     1     1     1     1     1     1     1     1     1     1     1     1     1     1
          1     1     1     1     1     1     1     1     1     1     1     1     1     1     1     1     1     1     1     1
          1     1     1     1     1     1     1     1     1     1     1     1     1     1     1     1     1     1     1     1
          1     1     1     1     1     1     1     1     1     1     1     1     1     1     1     1     1     1     1     1
          1     1     1     1     1     1     1     1     1     1     1     1     1     1     1     1     1     1     1     1
          1     1     1     1     1     1     1     1     1     1     1     1     1     1     1     1     1     1     1     1
          1     1     1     1     1     1
  54      0     0     0     0     0     0     0     0     0     0     0     0     0     1     1     1     1     1     1     1
          1     1     1     1     1     1     1     1     1     1     1     1     1     1     1     1     1     1     1     1
          1     1     1     1     1     1     1     1     1     1     1     1     1     1     1     1     1     1     1     1
          1     1     1     1     1     1     1     1     1     1     1     1     1     1     1     1     1     1     1     1
          1     1     1     1     1     1     1     1     1     1     1     1     1     1     1     1     1     1     1     1
          1     1     1     1     1     1     1     1     1     1     1     1     1     1     1     1     1     1     1     1
          1     1     1     1     1     1     1     1     1     1     1     1     1     1     1     1     1     1     1     1
          1     1     1     1     1     1     1     1     1     1     1     1     1     1     1     1     1     1     1     1
          1     1     1     1     1     1     1     1     1     1     1     1     1     1     1     1     1     1     1     1
          1     1     1     1     1     1
  55      0     0     0     0     0     0     0     0     0     0     0     0     0     1     1     1     1     1     1     1
          1     1     1     1     1     1     1     1     1     1     1     1     1     1     1     1     1     1     1     1
          1     1     1     1     1     1     1     1     1     1     1     1     1     1     1     1     1     1     1     1
          1     1     1     1     1     1     1     1     1     1     1     1     1     1     1     1     1     1     1     1
          1     1     1     1     1     1     1     1     1     1     1     1     1     1     1     1     1     1     1     1
          1     1     1     1     1     1     1     1     1     1     1     1     1     1     1     1     1     1     1     1
          1     1     1     1     1     1     1     1     1     1     1     1     1     1     1     1     1     1     1     1
          1     1     1     1     1     1     1     1     1     1     1     1     1     1     1     1     1     1     1     1
          1     1     1     1     1     1     1     1     1     1     1     1     1     1     1     1     1     1     1     1
          1     1     1     1     1     1
  56      0     0     0     0     0     0     0     0     0     0     0     0     0     1     1     1     1     1     1     1
          1     1     1     1     1     1     1     1     1     1     1     1     1     1     1     1     1     1     1     1
          1     1     1     1     1     1     1     1     1     1     1     1     1     1     1     1     1     1     1     1
          1     1     1     1     1     1     1     1     1     1     1     1     1     1     1     1     1     1     1     1
          1     1     1     1     1     1     1     1     1     1     1     1     1     1     1     1     1     1     1     1
          1     1     1     1     1     1     1     1     1     1     1     1     1     1     1     1     1     1     1     1
          1     1     1     1     1     1     1     1     1     1     1     1     1     1     1     1     1     1     1     1
          1     1     1     1     1     1     1     1     1     1     1     1     1     1     1     1     1     1     1     1
          1     1     1     1     1     1     1     1     1     1     1     1     1     1     1     1     1     1     1     1
          1     1     1     1     1     1
  57      0     0     0     0     0     0     0     0     0     0     0     0     0     1     1     1     1     1     1     1
          1     1     1     1     1     1     1     1     1     1     1     1     1     1     1     1     1     1     1     1
          1     1     1     1     1     1     1     1     1     1     1     1     1     1     1     1     1     1     1     1
          1     1     1     1     1     1     1     1     1     1     1     1     1     1     1     1     1     1     1     1
          1     1     1     1     1     1     1     1     1     1     1     1     1     1     1     1     1     1     1     1
          1     1     1     1     1     1     1     1     1     1     1     1     1     1     1     1     1     1     1     1
          1     1     1     1     1     1     1     1     1     1     1     1     1     1     1     1     1     1     1     1
          1     1     1     1     1     1     1     1     1     1     1     1     1     1     1     1     1     1     1     1
          1     1     1     1     1     1     1     1     1     1     1     1     1     1     1     1     1     1     1     1
          1     1     1     1     1     1
  58      0     0     0     0     0     0     0     0     0     0     0     0     0     1     1     1     1     1     1     1
          1     1     1     1     1     1     1     1     1     1     1     1     1     1     1     1     1     1     1     1
          1     1     1     1     1     1     1     1     1     1     1     1     1     1     1     1     1     1     1     1
          1     1     1     1     1     1     1     1     1     1     1     1     1     1     1     1     1     1     1     1
          1     1     1     1     1     1     1     1     1     1     1     1     1     1     1     1     1     1     1     1
          1     1     1     1     1     1     1     1     1     1     1     1     1     1     1     1     1     1     1     1
          1     1     1     1     1     1     1     1     1     1     1     1     1     1     1     1     1     1     1     1
          1     1     1     1     1     1     1     1     1     1     1     1     1     1     1     1     1     1     1     1
          1     1     1     1     1     1     1     1     1     1     1     1     1     1     1     1     1     1     1     1
          1     1     1     1     1     1
  59      0     0     0     0     0     0     0     0     0     0     0     0     0     0     1     1     1     1     1     1
          1     1     1     1     1     1     1     1     1     1     1     1     1     1     1     1     1     1     1     1
          1     1     1     1     1     1     1     1     1     1     1     1     1     1     1     1     1     1     1     1
          1     1     1     1     1     1     1     1     1     1     1     1     1     1     1     1     1     1     1     1
          1     1     1     1     1     1     1     1     1     1     1     1     1     1     1     1     1     1     1     1
          1     1     1     1     1     1     1     1     1     1     1     1     1     1     1     1     1     1     1     1
          1     1     1     1     1     1     1     1     1     1     1     1     1     1     1     1     1     1     1     1
          1     1     1     1     1     1     1     1     1     1     1     1     1     1     1     1     1     1     1     1
          1     1     1     1     1     1     1     1     1     1     1     1     1     1     1     1     1     1     1     1
          1     1     1     1     1     1
  60      0     0     0     0     0     0     0     0     0     0     0     0     0     0     1     1     1     1     1     1
          1     1     1     1     1     1     1     1     1     1     1     1     1     1     1     1     1     1     1     1
          1     1     1     1     1     1     1     1     1     1     1     1     1     1     1     1     1     1     1     1
          1     1     1     1     1     1     1     1     1     1     1     1     1     1     1     1     1     1     1     1
          1     1     1     1     1     1     1     1     1     1     1     1     1     1     1     1     1     1     1     1
          1     1     1     1     1     1     1     1     1     1     1     1     1     1     1     1     1     1     1     1
          1     1     1     1     1     1     1     1     1     1     1     1     1     1     1     1     1     1     1     1
          1     1     1     1     1     1     1     1     1     1     1     1     1     1     1     1     1     1     1     1
          1     1     1     1     1     1     1     1     1     1     1     1     1     1     1     1     1     1     1     1
          1     1     1     1     1     1
  61      0     0     0     0     0     0     0     0     0     0     0     0     0     0     1     1     1     1     1     1
          1     1     1     1     1     1     1     1     1     1     1     1     1     1     1     1     1     1     1     1
          1     1     1     1     1     1     1     1     1     1     1     1     1     1     1     1     1     1     1     1
          1     1     1     1     1     1     1     1     1     1     1     1     1     1     1     1     1     1     1     1
          1     1     1     1     1     1     1     1     1     1     1     1     1     1     1     1     1     1     1     1
          1     1     1     1     1     1     1     1     1     1     1     1     1     1     1     1     1     1     1     1
          1     1     1     1     1     1     1     1     1     1     1     1     1     1     1     1     1     1     1     1
          1     1     1     1     1     1     1     1     1     1     1     1     1     1     1     1     1     1     1     1
          1     1     1     1     1     1     1     1     1     1     1     1     1     1     1     1     1     1     1     1
          1     1     1     1     1     1
  62      0     0     0     0     0     0     0     0     0     0     0     0     0     0     1     1     1     1     1     1
          1     1     1     1     1     1     1     1     1     1     1     1     1     1     1     1     1     1     1     1
          1     1     1     1     1     1     1     1     1     1     1     1     1     1     1     1     1     1     1     1
          1     1     1     1     1     1     1     1     1     1     1     1     1     1     1     1     1     1     1     1
          1     1     1     1     1     1     1     1     1     1     1     1     1     1     1     1     1     1     1     1
          1     1     1     1     1     1     1     1     1     1     1     1     1     1     1     1     1     1     1     1
          1     1     1     1     1     1     1     1     1     1     1     1     1     1     1     1     1     1     1     1
          1     1     1     1     1     1     1     1     1     1     1     1     1     1     1     1     1     1     1     1
          1     1     1     1     1     1     1     1     1     1     1     1     1     1     1     1     1     1     1     1
          1     1     1     1     1     1
  63      0     0     0     0     0     0     0     0     0     0     0     0     0     0     1     1     1     1     1     1
          1     1     1     1     1     1     1     1     1     1     1     1     1     1     1     1     1     1     1     1
          1     1     1     1     1     1     1     1     1     1     1     1     1     1     1     1     1     1     1     1
          1     1     1     1     1     1     1     1     1     1     1     1     1     1     1     1     1     1     1     1
          1     1     1     1     1     1     1     1     1     1     1     1     1     1     1     1     1     1     1     1
          1     1     1     1     1     1     1     1     1     1     1     1     1     1     1     1     1     1     1     1
          1     1     1     1     1     1     1     1     1     1     1     1     1     1     1     1     1     1     1     1
          1     1     1     1     1     1     1     1     1     1     1     1     1     1     1     1     1     1     1     1
          1     1     1     1     1     1     1     1     1     1     1     1     1     1     1     1     1     1     1     1
          1     1     1     1     1     1
  64      0     0     0     0     0     0     0     0     0     0     0     0     0     0     1     1     1     1     1     1
          1     1     1     1     1     1     1     1     1     1     1     1     1     1     1     1     1     1     1     1
          1     1     1     1     1     1     1     1     1     1     1     1     1     1     1     1     1     1     1     1
          1     1     1     1     1     1     1     1     1     1     1     1     1     1     1     1     1     1     1     1
          1     1     1     1     1     1     1     1     1     1     1     1     1     1     1     1     1     1     1     1
          1     1     1     1     1     1     1     1     1     1     1     1     1     1     1     1     1     1     1     1
          1     1     1     1     1     1     1     1     1     1     1     1     1     1     1     1     1     1     1     1
          1     1     1     1     1     1     1     1     1     1     1     1     1     1     1     1     1     1     1     1
          1     1     1     1     1     1     1     1     1     1     1     1     1     1     1     1     1     1     1     1
          1     1     1     1     1     1
  65      0     0     0     0     0     0     0     0     0     0     0     0     0     0     1     1     1     1     1     1
          1     1     1     1     1     1     1     1     1     1     1     1     1     1     1     1     1     1     1     1
          1     1     1     1     1     1     1     1     1     1     1     1     1     1     1     1     1     1     1     1
          1     1     1     1     1     1     1     1     1     1     1     1     1     1     1     1     1     1     1     1
          1     1     1     1     1     1     1     1     1     1     1     1     1     1     1     1     1     1     1     1
          1     1     1     1     1     1     1     1     1     1     1     1     1     1     1     1     1     1     1     1
          1     1     1     1     1     1     1     1     1     1     1     1     1     1     1     1     1     1     1     1
          1     1     1     1     1     1     1     1     1     1     1     1     1     1     1     1     1     1     1     1
          1     1     1     1     1     1     1     1     1     1     1     1     1     1     1     1     1     1     1     1
          1     1     1     1     1     1
  66      0     0     0     0     0     0     0     0     0     0     0     0     0     0     0     1     1     1     1     1
          1     1     1     1     1     1     1     1     1     1     1     1     1     1     1     1     1     1     1     1
          1     1     1     1     1     1     1     1     1     1     1     1     1     1     1     1     1     1     1     1
          1     1     1     1     1     1     1     1     1     1     1     1     1     1     1     1     1     1     1     1
          1     1     1     1     1     1     1     1     1     1     1     1     1     1     1     1     1     1     1     1
          1     1     1     1     1     1     1     1     1     1     1     1     1     1     1     1     1     1     1     1
          1     1     1     1     1     1     1     1     1     1     1     1     1     1     1     1     1     1     1     1
          1     1     1     1     1     1     1     1     1     1     1     1     1     1     1     1     1     1     1     1
          1     1     1     1     1     1     1     1     1     1     1     1     1     1     1     1     1     1     1     1
          1     1     1     1     1     1
  67      0     0     0     0     0     0     0     0     0     0     0     0     0     0     0     1     1     1     1     1
          1     1     1     1     1     1     1     1     1     1     1     1     1     1     1     1     1     1     1     1
          1     1     1     1     1     1     1     1     1     1     1     1     1     1     1     1     1     1     1     1
          1     1     1     1     1     1     1     1     1     1     1     1     1     1     1     1     1     1     1     1
          1     1     1     1     1     1     1     1     1     1     1     1     1     1     1     1     1     1     1     1
          1     1     1     1     1     1     1     1     1     1     1     1     1     1     1     1     1     1     1     1
          1     1     1     1     1     1     1     1     1     1     1     1     1     1     1     1     1     1     1     1
          1     1     1     1     1     1     1     1     1     1     1     1     1     1     1     1     1     1     1     1
          1     1     1     1     1     1     1     1     1     1     1     1     1     1     1     1     1     1     1     1
          1     1     1     1     1     1
  68      0     0     0     0     0     0     0     0     0     0     0     0     0     0     0     1     1     1     1     1
          1     1     1     1     1     1     1     1     1     1     1     1     1     1     1     1     1     1     1     1
          1     1     1     1     1     1     1     1     1     1     1     1     1     1     1     1     1     1     1     1
          1     1     1     1     1     1     1     1     1     1     1     1     1     1     1     1     1     1     1     1
          1     1     1     1     1     1     1     1     1     1     1     1     1     1     1     1     1     1     1     1
          1     1     1     1     1     1     1     1     1     1     1     1     1     1     1     1     1     1     1     1
          1     1     1     1     1     1     1     1     1     1     1     1     1     1     1     1     1     1     1     1
          1     1     1     1     1     1     1     1     1     1     1     1     1     1     1     1     1     1     1     1
          1     1     1     1     1     1     1     1     1     1     1     1     1     1     1     1     1     1     1     1
          1     1     1     1     1     1
  69      0     0     0     0     0     0     0     0     0     0     0     0     0     0     0     1     1     1     1     1
          1     1     1     1     1     1     1     1     1     1     1     1     1     1     1     1     1     1     1     1
          1     1     1     1     1     1     1     1     1     1     1     1     1     1     1     1     1     1     1     1
          1     1     1     1     1     1     1     1     1     1     1     1     1     1     1     1     1     1     1     1
          1     1     1     1     1     1     1     1     1     1     1     1     1     1     1     1     1     1     1     1
          1     1     1     1     1     1     1     1     1     1     1     1     1     1     1     1     1     1     1     1
          1     1     1     1     1     1     1     1     1     1     1     1     1     1     1     1     1     1     1     1
          1     1     1     1     1     1     1     1     1     1     1     1     1     1     1     1     1     1     1     1
          1     1     1     1     1     1     1     1     1     1     1     1     1     1     1     1     1     1     1     1
          1     1     1     1     1     1
  70      0     0     0     0     0     0     0     0     0     0     0     0     0     0     0     1     1     1     1     1
          1     1     1     1     1     1     1     1     1     1     1     1     1     1     1     1     1     1     1     1
          1     1     1     1     1     1     1     1     1     1     1     1     1     1     1     1     1     1     1     1
          1     1     1     1     1     1     1     1     1     1     1     1     1     1     1     1     1     1     1     1
          1     1     1     1     1     1     1     1     1     1     1     1     1     1     1     1     1     1     1     1
          1     1     1     1     1     1     1     1     1     1     1     1     1     1     1     1     1     1     1     1
          1     1     1     1     1     1     1     1     1     1     1     1     1     1     1     1     1     1     1     1
          1     1     1     1     1     1     1     1     1     1     1     1     1     1     1     1     1     1     1     1
          1     1     1     1     1     1     1     1     1     1     1     1     1     1     1     1     1     1     1     1
          1     1     1     1     1     1
  71      0     0     0     0     0     0     0     0     0     0     0     0     0     0     0     1     1     1     1     1
          1     1     1     1     1     1     1     1     1     1     1     1     1     1     1     1     1     1     1     1
          1     1     1     1     1     1     1     1     1     1     1     1     1     1     1     1     1     1     1     1
          1     1     1     1     1     1     1     1     1     1     1     1     1     1     1     1     1     1     1     1
          1     1     1     1     1     1     1     1     1     1     1     1     1     1     1     1     1     1     1     1
          1     1     1     1     1     1     1     1     1     1     1     1     1     1     1     1     1     1     1     1
          1     1     1     1     1     1     1     1     1     1     1     1     1     1     1     1     1     1     1     1
          1     1     1     1     1     1     1     1     1     1     1     1     1     1     1     1     1     1     1     1
          1     1     1     1     1     1     1     1     1     1     1     1     1     1     1     1     1     1     1     1
          1     1     1     1     1     1
  72      0     0     0     0     0     0     0     0     0     0     0     0     0     0     0     0     1     1     1     1
          1     1     1     1     1     1     1     1     1     1     1     1     1     1     1     1     1     1     1     1
          1     1     1     1     1     1     1     1     1     1     1     1     1     1     1     1     1     1     1     1
          1     1     1     1     1     1     1     1     1     1     1     1     1     1     1     1     1     1     1     1
          1     1     1     1     1     1     1     1     1     1     1     1     1     1     1     1     1     1     1     1
          1     1     1     1     1     1     1     1     1     1     1     1     1     1     1     1     1     1     1     1
          1     1     1     1     1     1     1     1     1     1     1     1     1     1     1     1     1     1     1     1
          1     1     1     1     1     1     1     1     1     1     1     1     1     1     1     1     1     1     1     1
          1     1     1     1     1     1     1     1     1     1     1     1     1     1     1     1     1     1     1     1
          1     1     1     1     1     1
  73      0     0     0     0     0     0     0     0     0     0     0     0     0     0     0     0     1     1     1     1
          1     1     1     1     1     1     1     1     1     1     1     1     1     1     1     1     1     1     1     1
          1     1     1     1     1     1     1     1     1     1     1     1     1     1     1     1     1     1     1     1
          1     1     1     1     1     1     1     1     1     1     1     1     1     1     1     1     1     1     1     1
          1     1     1     1     1     1     1     1     1     1     1     1     1     1     1     1     1     1     1     1
          1     1     1     1     1     1     1     1     1     1     1     1     1     1     1     1     1     1     1     1
          1     1     1     1     1     1     1     1     1     1     1     1     1     1     1     1     1     1     1     1
          1     1     1     1     1     1     1     1     1     1     1     1     1     1     1     1     1     1     1     1
          1     1     1     1     1     1     1     1     1     1     1     1     1     1     1     1     1     1     1     1
          1     1     1     1     1     1
  74      0     0     0     0     0     0     0     0     0     0     0     0     0     0     0     0     1     1     1     1
          1     1     1     1     1     1     1     1     1     1     1     1     1     1     1     1     1     1     1     1
          1     1     1     1     1     1     1     1     1     1     1     1     1     1     1     1     1     1     1     1
          1     1     1     1     1     1     1     1     1     1     1     1     1     1     1     1     1     1     1     1
          1     1     1     1     1     1     1     1     1     1     1     1     1     1     1     1     1     1     1     1
          1     1     1     1     1     1     1     1     1     1     1     1     1     1     1     1     1     1     1     1
          1     1     1     1     1     1     1     1     1     1     1     1     1     1     1     1     1     1     1     1
          1     1     1     1     1     1     1     1     1     1     1     1     1     1     1     1     1     1     1     1
          1     1     1     1     1     1     1     1     1     1     1     1     1     1     1     1     1     1     1     1
          1     1     1     1     1     1
  75      0     0     0     0     0     0     0     0     0     0     0     0     0     0     0     0     1     1     1     1
          1     1     1     1     1     1     1     1     1     1     1     1     1     1     1     1     1     1     1     1
          1     1     1     1     1     1     1     1     1     1     1     1     1     1     1     1     1     1     1     1
          1     1     1     1     1     1     1     1     1     1     1     1     1     1     1     1     1     1     1     1
          1     1     1     1     1     1     1     1     1     1     1     1     1     1     1     1     1     1     1     1
          1     1     1     1     1     1     1     1     1     1     1     1     1     1     1     1     1     1     1     1
          1     1     1     1     1     1     1     1     1     1     1     1     1     1     1     1     1     1     1     1
          1     1     1     1     1     1     1     1     1     1     1     1     1     1     1     1     1     1     1     1
          1     1     1     1     1     1     1     1     1     1     1     1     1     1     1     1     1     1     1     1
          1     1     1     1     1     1
  76      0     0     0     0     0     0     0     0     0     0     0     0     0     0     0     1     1     1     1     1
          1     1     1     1     1     1     1     1     1     1     1     1     1     1     1     1     1     1     1     1
          1     1     1     1     1     1     1     1     1     1     1     1     1     1     1     1     1     1     1     1
          1     1     1     1     1     1     1     1     1     1     1     1     1     1     1     1     1     1     1     1
          1     1     1     1     1     1     1     1     1     1     1     1     1     1     1     1     1     1     1     1
          1     1     1     1     1     1     1     1     1     1     1     1     1     1     1     1     1     1     1     1
          1     1     1     1     1     1     1     1     1     1     1     1     1     1     1     1     1     1     1     1
          1     1     1     1     1     1     1     1     1     1     1     1     1     1     1     1     1     1     1     1
          1     1     1     1     1     1     1     1     1     1     1     1     1     1     1     1     1     1     1     1
          1     1     1     1     1     1
  77      0     0     0     0     0     0     0     0     0     0     0     0     0     0     0     1     1     1     1     1
          1     1     1     1     1     1     1     1     1     1     1     1     1     1     1     1     1     1     1     1
          1     1     1     1     1     1     1     1     1     1     1     1     1     1     1     1     1     1     1     1
          1     1     1     1     1     1     1     1     1     1     1     1     1     1     1     1     1     1     1     1
          1     1     1     1     1     1     1     1     1     1     1     1     1     1     1     1     1     1     1     1
          1     1     1     1     1     1     1     1     1     1     1     1     1     1     1     1     1     1     1     1
          1     1     1     1     1     1     1     1     1     1     1     1     1     1     1     1     1     1     1     1
          1     1     1     1     1     1     1     1     1     1     1     1     1     1     1     1     1     1     1     1
          1     1     1     1     1     1     1     1     1     1     1     1     1     1     1     1     1     1     1     1
          1     1     1     1     1     1
  78      0     0     0     0     0     0     0     0     0     0     0     0     0     0     0     1     1     1     1     1
          1     1     1     1     1     1     1     1     1     1     1     1     1     1     1     1     1     1     1     1
          1     1     1     1     1     1     1     1     1     1     1     1     1     1     1     1     1     1     1     1
          1     1     1     1     1     1     1     1     1     1     1     1     1     1     1     1     1     1     1     1
          1     1     1     1     1     1     1     1     1     1     1     1     1     1     1     1     1     1     1     1
          1     1     1     1     1     1     1     1     1     1     1     1     1     1     1     1     1     1     1     1
          1     1     1     1     1     1     1     1     1     1     1     1     1     1     1     1     1     1     1     1
          1     1     1     1     1     1     1     1     1     1     1     1     1     1     1     1     1     1     1     1
          1     1     1     1     1     1     1     1     1     1     1     1     1     1     1     1     1     1     1     1
          1     1     1     1     1     1
  79      0     0     0     0     0     0     0     0     0     0     0     0     0     0     0     1     1     1     1     1
          1     1     1     1     1     1     1     1     1     1     1     1     1     1     1     1     1     1     1     1
          1     1     1     1     1     1     1     1     1     1     1     1     1     1     1     1     1     1     1     1
          1     1     1     1     1     1     1     1     1     1     1     1     1     1     1     1     1     1     1     1
          1     1     1     1     1     1     1     1     1     1     1     1     1     1     1     1     1     1     1     1
          1     1     1     1     1     1     1     1     1     1     1     1     1     1     1     1     1     1     1     1
          1     1     1     1     1     1     1     1     1     1     1     1     1     1     1     1     1     1     1     1
          1     1     1     1     1     1     1     1     1     1     1     1     1     1     1     1     1     1     1     1
          1     1     1     1     1     1     1     1     1     1     1     1     1     1     1     1     1     1     1     1
          1     1     1     1     1     1
  80      0     0     0     0     0     0     0     0     0     0     0     0     0     0     0     1     1     1     1     1
          1     1     1     1     1     1     1     1     1     1     1     1     1     1     1     1     1     1     1     1
          1     1     1     1     1     1     1     1     1     1     1     1     1     1     1     1     1     1     1     1
          1     1     1     1     1     1     1     1     1     1     1     1     1     1     1     1     1     1     1     1
          1     1     1     1     1     1     1     1     1     1     1     1     1     1     1     1     1     1     1     1
          1     1     1     1     1     1     1     1     1     1     1     1     1     1     1     1     1     1     1     1
          1     1     1     1     1     1     1     1     1     1     1     1     1     1     1     1     1     1     1     1
          1     1     1     1     1     1     1     1     1     1     1     1     1     1     1     1     1     1     1     1
          1     1     1     1     1     1     1     1     1     1     1     1     1     1     1     1     1     1     1     1
          1     1     1     1     1     1
  81      0     0     0     0     0     0     0     0     0     0     0     0     0     0     0     1     1     1     1     1
          1     1     1     1     1     1     1     1     1     1     1     1     1     1     1     1     1     1     1     1
          1     1     1     1     1     1     1     1     1     1     1     1     1     1     1     1     1     1     1     1
          1     1     1     1     1     1     1     1     1     1     1     1     1     1     1     1     1     1     1     1
          1     1     1     1     1     1     1     1     1     1     1     1     1     1     1     1     1     1     1     1
          1     1     1     1     1     1     1     1     1     1     1     1     1     1     1     1     1     1     1     1
          1     1     1     1     1     1     1     1     1     1     1     1     1     1     1     1     1     1     1     1
          1     1     1     1     1     1     1     1     1     1     1     1     1     1     1     1     1     1     1     1
          1     1     1     1     1     1     1     1     1     1     1     1     1     1     1     1     1     1     1     1
          1     1     1     1     1     1
  82      0     0     0     0     0     0     0     0     0     0     0     0     0     0     0     1     1     1     1     1
          1     1     1     1     1     1     1     1     1     1     1     1     1     1     1     1     1     1     1     1
          1     1     1     1     1     1     1     1     1     1     1     1     1     1     1     1     1     1     1     1
          1     1     1     1     1     1     1     1     1     1     1     1     1     1     1     1     1     1     1     1
          1     1     1     1     1     1     1     1     1     1     1     1     1     1     1     1     1     1     1     1
          1     1     1     1     1     1     1     1     1     1     1     1     1     1     1     1     1     1     1     1
          1     1     1     1     1     1     1     1     1     1     1     1     1     1     1     1     1     1     1     1
          1     1     1     1     1     1     1     1     1     1     1     1     1     1     1     1     1     1     1     1
          1     1     1     1     1     1     1     1     1     1     1     1     1     1     1     1     1     1     1     1
          1     1     1     1     1     1
  83      0     0     0     0     0     0     0     0     0     0     0     0     0     0     0     1     1     1     1     1
          1     1     1     1     1     1     1     1     1     1     1     1     1     1     1     1     1     1     1     1
          1     1     1     1     1     1     1     1     1     1     1     1     1     1     1     1     1     1     1     1
          1     1     1     1     1     1     1     1     1     1     1     1     1     1     1     1     1     1     1     1
          1     1     1     1     1     1     1     1     1     1     1     1     1     1     1     1     1     1     1     1
          1     1     1     1     1     1     1     1     1     1     1     1     1     1     1     1     1     1     1     1
          1     1     1     1     1     1     1     1     1     1     1     1     1     1     1     1     1     1     1     1
          1     1     1     1     1     1     1     1     1     1     1     1     1     1     1     1     1     1     1     1
          1     1     1     1     1     1     1     1     1     1     1     1     1     1     1     1     1     1     1     1
          1     1     1     1     1     1
  84      0     0     0     0     0     0     0     0     0     0     0     0     0     0     0     1     1     1     1     1
          1     1     1     1     1     1     1     1     1     1     1     1     1     1     1     1     1     1     1     1
          1     1     1     1     1     1     1     1     1     1     1     1     1     1     1     1     1     1     1     1
          1     1     1     1     1     1     1     1     1     1     1     1     1     1     1     1     1     1     1     1
          1     1     1     1     1     1     1     1     1     1     1     1     1     1     1     1     1     1     1     1
          1     1     1     1     1     1     1     1     1     1     1     1     1     1     1     1     1     1     1     1
          1     1     1     1     1     1     1     1     1     1     1     1     1     1     1     1     1     1     1     1
          1     1     1     1     1     1     1     1     1     1     1     1     1     1     1     1     1     1     1     1
          1     1     1     1     1     1     1     1     1     1     1     1     1     1     1     1     1     1     1     1
          1     1     1     1     1     1
  85      0     0     0     0     0     0     0     0     0     0     0     0     0     0     0     1     1     1     1     1
          1     1     1     1     1     1     1     1     1     1     1     1     1     1     1     1     1     1     1     1
          1     1     1     1     1     1     1     1     1     1     1     1     1     1     1     1     1     1     1     1
          1     1     1     1     1     1     1     1     1     1     1     1     1     1     1     1     1     1     1     1
          1     1     1     1     1     1     1     1     1     1     1     1     1     1     1     1     1     1     1     1
          1     1     1     1     1     1     1     1     1     1     1     1     1     1     1     1     1     1     1     1
          1     1     1     1     1     1     1     1     1     1     1     1     1     1     1     1     1     1     1     1
          1     1     1     1     1     1     1     1     1     1     1     1     1     1     1     1     1     1     1     1
          1     1     1     1     1     1     1     1     1     1     1     1     1     1     1     1     1     1     1     1
          1     1     1     1     1     1
  86      0     0     0     0     0     0     0     0     0     0     0     0     0     0     0     1     1     1     1     1
          1     1     1     1     1     1     1     1     1     1     1     1     1     1     1     1     1     1     1     1
          1     1     1     1     1     1     1     1     1     1     1     1     1     1     1     1     1     1     1     1
          1     1     1     1     1     1     1     1     1     1     1     1     1     1     1     1     1     1     1     1
          1     1     1     1     1     1     1     1     1     1     1     1     1     1     1     1     1     1     1     1
          1     1     1     1     1     1     1     1     1     1     1     1     1     1     1     1     1     1     1     1
          1     1     1     1     1     1     1     1     1     1     1     1     1     1     1     1     1     1     1     1
          1     1     1     1     1     1     1     1     1     1     1     1     1     1     1     1     1     1     1     1
          1     1     1     1     1     1     1     1     1     1     1     1     1     1     1     1     1     1     1     1
          1     1     1     1     1     1
  87      0     0     0     0     0     0     0     0     0     0     0     0     0     0     0     1     1     1     1     1
          1     1     1     1     1     1     1     1     1     1     1     1     1     1     1     1     1     1     1     1
          1     1     1     1     1     1     1     1     1     1     1     1     1     1     1     1     1     1     1     1
          1     1     1     1     1     1     1     1     1     1     1     1     1     1     1     1     1     1     1     1
          1     1     1     1     1     1     1     1     1     1     1     1     1     1     1     1     1     1     1     1
          1     1     1     1     1     1     1     1     1     1     1     1     1     1     1     1     1     1     1     1
          1     1     1     1     1     1     1     1     1     1     1     1     1     1     1     1     1     1     1     1
          1     1     1     1     1     1     1     1     1     1     1     1     1     1     1     1     1     1     1     1
          1     1     1     1     1     1     1     1     1     1     1     1     1     1     1     1     1     1     1     1
          1     1     1     1     1     1
  88      0     0     0     0     0     0     0     0     0     0     0     0     0     0     0     1     1     1     1     1
          1     1     1     1     1     1     1     1     1     1     1     1     1     1     1     1     1     1     1     1
          1     1     1     1     1     1     1     1     1     1     1     1     1     1     1     1     1     1     1     1
          1     1     1     1     1     1     1     1     1     1     1     1     1     1     1     1     1     1     1     1
          1     1     1     1     1     1     1     1     1     1     1     1     1     1     1     1     1     1     1     1
          1     1     1     1     1     1     1     1     1     1     1     1     1     1     1     1     1     1     1     1
          1     1     1     1     1     1     1     1     1     1     1     1     1     1     1     1     1     1     1     1
          1     1     1     1     1     1     1     1     1     1     1     1     1     1     1     1     1     1     1     1
          1     1     1     1     1     1     1     1     1     1     1     1     1     1     1     1     1     1     1     1
          1     1     1     1     1     1
  89      0     0     0     0     0     0     0     0     0     0     0     0     0     0     0     1     1     1     1     1
          1     1     1     1     1     1     1     1     1     1     1     1     1     1     1     1     1     1     1     1
          1     1     1     1     1     1     1     1     1     1     1     1     1     1     1     1     1     1     1     1
          1     1     1     1     1     1     1     1     1     1     1     1     1     1     1     1     1     1     1     1
          1     1     1     1     1     1     1     1     1     1     1     1     1     1     1     1     1     1     1     1
          1     1     1     1     1     1     1     1     1     1     1     1     1     1     1     1     1     1     1     1
          1     1     1     1     1     1     1     1     1     1     1     1     1     1     1     1     1     1     1     1
          1     1     1     1     1     1     1     1     1     1     1     1     1     1     1     1     1     1     1     1
          1     1     1     1     1     1     1     1     1     1     1     1     1     1     1     1     1     1     1     1
          1     1     1     1     1     1



                     BOUNDARY ARRAY FOR LAYER   2
 READING ON UNIT   13 WITH FORMAT: (FREE)              

          1     2     3     4     5     6     7     8     9    10    11    12    13    14    15    16    17    18    19    20
         21    22    23    24    25    26    27    28    29    30    31    32    33    34    35    36    37    38    39    40
         41    42    43    44    45    46    47    48    49    50    51    52    53    54    55    56    57    58    59    60
         61    62    63    64    65    66    67    68    69    70    71    72    73    74    75    76    77    78    79    80
         81    82    83    84    85    86    87    88    89    90    91    92    93    94    95    96    97    98    99   100
        101   102   103   104   105   106   107   108   109   110   111   112   113   114   115   116   117   118   119   120
        121   122   123   124   125   126   127   128   129   130   131   132   133   134   135   136   137   138   139   140
        141   142   143   144   145   146   147   148   149   150   151   152   153   154   155   156   157   158   159   160
        161   162   163   164   165   166   167   168   169   170   171   172   173   174   175   176   177   178   179   180
        181   182   183   184   185   186
 ............................................................................................................................
   1      0     0     0     1     1     1     1     1     1     1     1     1     1     1     1     1     1     1     1     1
          1     1     1     1     1     1     1     1     1     1     1     1     1     1     1     1     1     1     1     1
          1     1     1     1     1     1     1     1     1     1     1     1     1     1     1     1     1     1     1     1
          1     1     1     1     1     1     1     1     1     1     1     1     1     1     1     1     1     1     1     1
          1     1     1     1     1     1     1     1     1     1     1     1     1     1     1     1     1     1     1     1
          1     1     1     1     1     1     1     1     1     1     1     1     1     1     1     1     1     1     1     1
          1     1     1     1     1     1     1     1     1     1     1     1     1     1     1     1     1     1     1     1
          1     1     1     1     1     1     1     1     1     1     1     1     1     1     1     1     1     1     1     1
          1     1     1     1     1     1     1     1     1     1     1     1     1     1     1     1     1     1     1     1
          1     1     1     1     1     1
   2      0     0     0     1     1     1     1     1     1     1     1     1     1     1     1     1     1     1     1     1
          1     1     1     1     1     1     1     1     1     1     1     1     1     1     1     1     1     1     1     1
          1     1     1     1     1     1     1     1     1     1     1     1     1     1     1     1     1     1     1     1
          1     1     1     1     1     1     1     1     1     1     1     1     1     1     1     1     1     1     1     1
          1     1     1     1     1     1     1     1     1     1     1     1     1     1     1     1     1     1     1     1
          1     1     1     1     1     1     1     1     1     1     1     1     1     1     1     1     1     1     1     1
          1     1     1     1     1     1     1     1     1     1     1     1     1     1     1     1     1     1     1     1
          1     1     1     1     1     1     1     1     1     1     1     1     1     1     1     1     1     1     1     1
          1     1     1     1     1     1     1     1     1     1     1     1     1     1     1     1     1     1     1     1
          1     1     1     1     1     1
   3      0     0     0     0     1     1     1     1     1     1     1     1     1     1     1     1     1     1     1     1
          1     1     1     1     1     1     1     1     1     1     1     1     1     1     1     1     1     1     1     1
          1     1     1     1     1     1     1     1     1     1     1     1     1     1     1     1     1     1     1     1
          1     1     1     1     1     1     1     1     1     1     1     1     1     1     1     1     1     1     1     1
          1     1     1     1     1     1     1     1     1     1     1     1     1     1     1     1     1     1     1     1
          1     1     1     1     1     1     1     1     1     1     1     1     1     1     1     1     1     1     1     1
          1     1     1     1     1     1     1     1     1     1     1     1     1     1     1     1     1     1     1     1
          1     1     1     1     1     1     1     1     1     1     1     1     1     1     1     1     1     1     1     1
          1     1     1     1     1     1     1     1     1     1     1     1     1     1     1     1     1     1     1     1
          1     1     1     1     1     1
   4      0     0     0     0     1     1     1     1     1     1     1     1     1     1     1     1     1     1     1     1
          1     1     1     1     1     1     1     1     1     1     1     1     1     1     1     1     1     1     1     1
          1     1     1     1     1     1     1     1     1     1     1     1     1     1     1     1     1     1     1     1
          1     1     1     1     1     1     1     1     1     1     1     1     1     1     1     1     1     1     1     1
          1     1     1     1     1     1     1     1     1     1     1     1     1     1     1     1     1     1     1     1
          1     1     1     1     1     1     1     1     1     1     1     1     1     1     1     1     1     1     1     1
          1     1     1     1     1     1     1     1     1     1     1     1     1     1     1     1     1     1     1     1
          1     1     1     1     1     1     1     1     1     1     1     1     1     1     1     1     1     1     1     1
          1     1     1     1     1     1     1     1     1     1     1     1     1     1     1     1     1     1     1     1
          1     1     1     1     1     1
   5      0     0     0     0     1     1     1     1     1     1     1     1     1     1     1     1     1     1     1     1
          1     1     1     1     1     1     1     1     1     1     1     1     1     1     1     1     1     1     1     1
          1     1     1     1     1     1     1     1     1     1     1     1     1     1     1     1     1     1     1     1
          1     1     1     1     1     1     1     1     1     1     1     1     1     1     1     1     1     1     1     1
          1     1     1     1     1     1     1     1     1     1     1     1     1     1     1     1     1     1     1     1
          1     1     1     1     1     1     1     1     1     1     1     1     1     1     1     1     1     1     1     1
          1     1     1     1     1     1     1     1     1     1     1     1     1     1     1     1     1     1     1     1
          1     1     1     1     1     1     1     1     1     1     1     1     1     1     1     1     1     1     1     1
          1     1     1     1     1     1     1     1     1     1     1     1     1     1     1     1     1     1     1     1
          1     1     1     1     1     1
   6      0     0     0     0     1     1     1     1     1     1     1     1     1     1     1     1     1     1     1     1
          1     1     1     1     1     1     1     1     1     1     1     1     1     1     1     1     1     1     1     1
          1     1     1     1     1     1     1     1     1     1     1     1     1     1     1     1     1     1     1     1
          1     1     1     1     1     1     1     1     1     1     1     1     1     1     1     1     1     1     1     1
          1     1     1     1     1     1     1     1     1     1     1     1     1     1     1     1     1     1     1     1
          1     1     1     1     1     1     1     1     1     1     1     1     1     1     1     1     1     1     1     1
          1     1     1     1     1     1     1     1     1     1     1     1     1     1     1     1     1     1     1     1
          1     1     1     1     1     1     1     1     1     1     1     1     1     1     1     1     1     1     1     1
          1     1     1     1     1     1     1     1     1     1     1     1     1     1     1     1     1     1     1     1
          1     1     1     1     1     1
   7      0     0     0     0     0     1     1     1     1     1     1     1     1     1     1     1     1     1     1     1
          1     1     1     1     1     1     1     1     1     1     1     1     1     1     1     1     1     1     1     1
          1     1     1     1     1     1     1     1     1     1     1     1     1     1     1     1     1     1     1     1
          1     1     1     1     1     1     1     1     1     1     1     1     1     1     1     1     1     1     1     1
          1     1     1     1     1     1     1     1     1     1     1     1     1     1     1     1     1     1     1     1
          1     1     1     1     1     1     1     1     1     1     1     1     1     1     1     1     1     1     1     1
          1     1     1     1     1     1     1     1     1     1     1     1     1     1     1     1     1     1     1     1
          1     1     1     1     1     1     1     1     1     1     1     1     1     1     1     1     1     1     1     1
          1     1     1     1     1     1     1     1     1     1     1     1     1     1     1     1     1     1     1     1
          1     1     1     1     1     1
   8      0     0     0     0     0     1     1     1     1     1     1     1     1     1     1     1     1     1     1     1
          1     1     1     1     1     1     1     1     1     1     1     1     1     1     1     1     1     1     1     1
          1     1     1     1     1     1     1     1     1     1     1     1     1     1     1     1     1     1     1     1
          1     1     1     1     1     1     1     1     1     1     1     1     1     1     1     1     1     1     1     1
          1     1     1     1     1     1     1     1     1     1     1     1     1     1     1     1     1     1     1     1
          1     1     1     1     1     1     1     1     1     1     1     1     1     1     1     1     1     1     1     1
          1     1     1     1     1     1     1     1     1     1     1     1     1     1     1     1     1     1     1     1
          1     1     1     1     1     1     1     1     1     1     1     1     1     1     1     1     1     1     1     1
          1     1     1     1     1     1     1     1     1     1     1     1     1     1     1     1     1     1     1     1
          1     1     1     1     1     1
   9      0     0     0     0     0     1     1     1     1     1     1     1     1     1     1     1     1     1     1     1
          1     1     1     1     1     1     1     1     1     1     1     1     1     1     1     1     1     1     1     1
          1     1     1     1     1     1     1     1     1     1     1     1     1     1     1     1     1     1     1     1
          1     1     1     1     1     1     1     1     1     1     1     1     1     1     1     1     1     1     1     1
          1     1     1     1     1     1     1     1     1     1     1     1     1     1     1     1     1     1     1     1
          1     1     1     1     1     1     1     1     1     1     1     1     1     1     1     1     1     1     1     1
          1     1     1     1     1     1     1     1     1     1     1     1     1     1     1     1     1     1     1     1
          1     1     1     1     1     1     1     1     1     1     1     1     1     1     1     1     1     1     1     1
          1     1     1     1     1     1     1     1     1     1     1     1     1     1     1     1     1     1     1     1
          1     1     1     1     1     1
  10      0     0     0     0     0     0     1     1     1     1     1     1     1     1     1     1     1     1     1     1
          1     1     1     1     1     1     1     1     1     1     1     1     1     1     1     1     1     1     1     1
          1     1     1     1     1     1     1     1     1     1     1     1     1     1     1     1     1     1     1     1
          1     1     1     1     1     1     1     1     1     1     1     1     1     1     1     1     1     1     1     1
          1     1     1     1     1     1     1     1     1     1     1     1     1     1     1     1     1     1     1     1
          1     1     1     1     1     1     1     1     1     1     1     1     1     1     1     1     1     1     1     1
          1     1     1     1     1     1     1     1     1     1     1     1     1     1     1     1     1     1     1     1
          1     1     1     1     1     1     1     1     1     1     1     1     1     1     1     1     1     1     1     1
          1     1     1     1     1     1     1     1     1     1     1     1     1     1     1     1     1     1     1     1
          1     1     1     1     1     1
  11      0     0     0     0     0     0     1     1     1     1     1     1     1     1     1     1     1     1     1     1
          1     1     1     1     1     1     1     1     1     1     1     1     1     1     1     1     1     1     1     1
          1     1     1     1     1     1     1     1     1     1     1     1     1     1     1     1     1     1     1     1
          1     1     1     1     1     1     1     1     1     1     1     1     1     1     1     1     1     1     1     1
          1     1     1     1     1     1     1     1     1     1     1     1     1     1     1     1     1     1     1     1
          1     1     1     1     1     1     1     1     1     1     1     1     1     1     1     1     1     1     1     1
          1     1     1     1     1     1     1     1     1     1     1     1     1     1     1     1     1     1     1     1
          1     1     1     1     1     1     1     1     1     1     1     1     1     1     1     1     1     1     1     1
          1     1     1     1     1     1     1     1     1     1     1     1     1     1     1     1     1     1     1     1
          1     1     1     1     1     1
  12      0     0     0     0     0     0     1     1     1     1     1     1     1     1     1     1     1     1     1     1
          1     1     1     1     1     1     1     1     1     1     1     1     1     1     1     1     1     1     1     1
          1     1     1     1     1     1     1     1     1     1     1     1     1     1     1     1     1     1     1     1
          1     1     1     1     1     1     1     1     1     1     1     1     1     1     1     1     1     1     1     1
          1     1     1     1     1     1     1     1     1     1     1     1     1     1     1     1     1     1     1     1
          1     1     1     1     1     1     1     1     1     1     1     1     1     1     1     1     1     1     1     1
          1     1     1     1     1     1     1     1     1     1     1     1     1     1     1     1     1     1     1     1
          1     1     1     1     1     1     1     1     1     1     1     1     1     1     1     1     1     1     1     1
          1     1     1     1     1     1     1     1     1     1     1     1     1     1     1     1     1     1     1     1
          1     1     1     1     1     1
  13      0     0     0     0     0     0     1     1     1     1     1     1     1     1     1     1     1     1     1     1
          1     1     1     1     1     1     1     1     1     1     1     1     1     1     1     1     1     1     1     1
          1     1     1     1     1     1     1     1     1     1     1     1     1     1     1     1     1     1     1     1
          1     1     1     1     1     1     1     1     1     1     1     1     1     1     1     1     1     1     1     1
          1     1     1     1     1     1     1     1     1     1     1     1     1     1     1     1     1     1     1     1
          1     1     1     1     1     1     1     1     1     1     1     1     1     1     1     1     1     1     1     1
          1     1     1     1     1     1     1     1     1     1     1     1     1     1     1     1     1     1     1     1
          1     1     1     1     1     1     1     1     1     1     1     1     1     1     1     1     1     1     1     1
          1     1     1     1     1     1     1     1     1     1     1     1     1     1     1     1     1     1     1     1
          1     1     1     1     1     1
  14      0     0     0     0     0     0     1     1     1     1     1     1     1     1     1     1     1     1     1     1
          1     1     1     1     1     1     1     1     1     1     1     1     1     1     1     1     1     1     1     1
          1     1     1     1     1     1     1     1     1     1     1     1     1     1     1     1     1     1     1     1
          1     1     1     1     1     1     1     1     1     1     1     1     1     1     1     1     1     1     1     1
          1     1     1     1     1     1     1     1     1     1     1     1     1     1     1     1     1     1     1     1
          1     1     1     1     1     1     1     1     1     1     1     1     1     1     1     1     1     1     1     1
          1     1     1     1     1     1     1     1     1     1     1     1     1     1     1     1     1     1     1     1
          1     1     1     1     1     1     1     1     1     1     1     1     1     1     1     1     1     1     1     1
          1     1     1     1     1     1     1     1     1     1     1     1     1     1     1     1     1     1     1     1
          1     1     1     1     1     1
  15      0     0     0     0     0     0     1     1     1     1     1     1     1     1     1     1     1     1     1     1
          1     1     1     1     1     1     1     1     1     1     1     1     1     1     1     1     1     1     1     1
          1     1     1     1     1     1     1     1     1     1     1     1     1     1     1     1     1     1     1     1
          1     1     1     1     1     1     1     1     1     1     1     1     1     1     1     1     1     1     1     1
          1     1     1     1     1     1     1     1     1     1     1     1     1     1     1     1     1     1     1     1
          1     1     1     1     1     1     1     1     1     1     1     1     1     1     1     1     1     1     1     1
          1     1     1     1     1     1     1     1     1     1     1     1     1     1     1     1     1     1     1     1
          1     1     1     1     1     1     1     1     1     1     1     1     1     1     1     1     1     1     1     1
          1     1     1     1     1     1     1     1     1     1     1     1     1     1     1     1     1     1     1     1
          1     1     1     1     1     1
  16      0     0     0     0     0     0     1     1     1     1     1     1     1     1     1     1     1     1     1     1
          1     1     1     1     1     1     1     1     1     1     1     1     1     1     1     1     1     1     1     1
          1     1     1     1     1     1     1     1     1     1     1     1     1     1     1     1     1     1     1     1
          1     1     1     1     1     1     1     1     1     1     1     1     1     1     1     1     1     1     1     1
          1     1     1     1     1     1     1     1     1     1     1     1     1     1     1     1     1     1     1     1
          1     1     1     1     1     1     1     1     1     1     1     1     1     1     1     1     1     1     1     1
          1     1     1     1     1     1     1     1     1     1     1     1     1     1     1     1     1     1     1     1
          1     1     1     1     1     1     1     1     1     1     1     1     1     1     1     1     1     1     1     1
          1     1     1     1     1     1     1     1     1     1     1     1     1     1     1     1     1     1     1     1
          1     1     1     1     1     1
  17      0     0     0     0     0     0     0     1     1     1     1     1     1     1     1     1     1     1     1     1
          1     1     1     1     1     1     1     1     1     1     1     1     1     1     1     1     1     1     1     1
          1     1     1     1     1     1     1     1     1     1     1     1     1     1     1     1     1     1     1     1
          1     1     1     1     1     1     1     1     1     1     1     1     1     1     1     1     1     1     1     1
          1     1     1     1     1     1     1     1     1     1     1     1     1     1     1     1     1     1     1     1
          1     1     1     1     1     1     1     1     1     1     1     1     1     1     1     1     1     1     1     1
          1     1     1     1     1     1     1     1     1     1     1     1     1     1     1     1     1     1     1     1
          1     1     1     1     1     1     1     1     1     1     1     1     1     1     1     1     1     1     1     1
          1     1     1     1     1     1     1     1     1     1     1     1     1     1     1     1     1     1     1     1
          1     1     1     1     1     1
  18      0     0     0     0     0     0     0     1     1     1     1     1     1     1     1     1     1     1     1     1
          1     1     1     1     1     1     1     1     1     1     1     1     1     1     1     1     1     1     1     1
          1     1     1     1     1     1     1     1     1     1     1     1     1     1     1     1     1     1     1     1
          1     1     1     1     1     1     1     1     1     1     1     1     1     1     1     1     1     1     1     1
          1     1     1     1     1     1     1     1     1     1     1     1     1     1     1     1     1     1     1     1
          1     1     1     1     1     1     1     1     1     1     1     1     1     1     1     1     1     1     1     1
          1     1     1     1     1     1     1     1     1     1     1     1     1     1     1     1     1     1     1     1
          1     1     1     1     1     1     1     1     1     1     1     1     1     1     1     1     1     1     1     1
          1     1     1     1     1     1     1     1     1     1     1     1     1     1     1     1     1     1     1     1
          1     1     1     1     1     1
  19      0     0     0     0     0     0     0     1     1     1     1     1     1     1     1     1     1     1     1     1
          1     1     1     1     1     1     1     1     1     1     1     1     1     1     1     1     1     1     1     1
          1     1     1     1     1     1     1     1     1     1     1     1     1     1     1     1     1     1     1     1
          1     1     1     1     1     1     1     1     1     1     1     1     1     1     1     1     1     1     1     1
          1     1     1     1     1     1     1     1     1     1     1     1     1     1     1     1     1     1     1     1
          1     1     1     1     1     1     1     1     1     1     1     1     1     1     1     1     1     1     1     1
          1     1     1     1     1     1     1     1     1     1     1     1     1     1     1     1     1     1     1     1
          1     1     1     1     1     1     1     1     1     1     1     1     1     1     1     1     1     1     1     1
          1     1     1     1     1     1     1     1     1     1     1     1     1     1     1     1     1     1     1     1
          1     1     1     1     1     1
  20      0     0     0     0     0     0     0     1     1     1     1     1     1     1     1     1     1     1     1     1
          1     1     1     1     1     1     1     1     1     1     1     1     1     1     1     1     1     1     1     1
          1     1     1     1     1     1     1     1     1     1     1     1     1     1     1     1     1     1     1     1
          1     1     1     1     1     1     1     1     1     1     1     1     1     1     1     1     1     1     1     1
          1     1     1     1     1     1     1     1     1     1     1     1     1     1     1     1     1     1     1     1
          1     1     1     1     1     1     1     1     1     1     1     1     1     1     1     1     1     1     1     1
          1     1     1     1     1     1     1     1     1     1     1     1     1     1     1     1     1     1     1     1
          1     1     1     1     1     1     1     1     1     1     1     1     1     1     1     1     1     1     1     1
          1     1     1     1     1     1     1     1     1     1     1     1     1     1     1     1     1     1     1     1
          1     1     1     1     1     1
  21      0     0     0     0     0     0     0     1     1     1     1     1     1     1     1     1     1     1     1     1
          1     1     1     1     1     1     1     1     1     1     1     1     1     1     1     1     1     1     1     1
          1     1     1     1     1     1     1     1     1     1     1     1     1     1     1     1     1     1     1     1
          1     1     1     1     1     1     1     1     1     1     1     1     1     1     1     1     1     1     1     1
          1     1     1     1     1     1     1     1     1     1     1     1     1     1     1     1     1     1     1     1
          1     1     1     1     1     1     1     1     1     1     1     1     1     1     1     1     1     1     1     1
          1     1     1     1     1     1     1     1     1     1     1     1     1     1     1     1     1     1     1     1
          1     1     1     1     1     1     1     1     1     1     1     1     1     1     1     1     1     1     1     1
          1     1     1     1     1     1     1     1     1     1     1     1     1     1     1     1     1     1     1     1
          1     1     1     1     1     1
  22      0     0     0     0     0     0     0     1     1     1     1     1     1     1     1     1     1     1     1     1
          1     1     1     1     1     1     1     1     1     1     1     1     1     1     1     1     1     1     1     1
          1     1     1     1     1     1     1     1     1     1     1     1     1     1     1     1     1     1     1     1
          1     1     1     1     1     1     1     1     1     1     1     1     1     1     1     1     1     1     1     1
          1     1     1     1     1     1     1     1     1     1     1     1     1     1     1     1     1     1     1     1
          1     1     1     1     1     1     1     1     1     1     1     1     1     1     1     1     1     1     1     1
          1     1     1     1     1     1     1     1     1     1     1     1     1     1     1     1     1     1     1     1
          1     1     1     1     1     1     1     1     1     1     1     1     1     1     1     1     1     1     1     1
          1     1     1     1     1     1     1     1     1     1     1     1     1     1     1     1     1     1     1     1
          1     1     1     1     1     1
  23      0     0     0     0     0     0     0     1     1     1     1     1     1     1     1     1     1     1     1     1
          1     1     1     1     1     1     1     1     1     1     1     1     1     1     1     1     1     1     1     1
          1     1     1     1     1     1     1     1     1     1     1     1     1     1     1     1     1     1     1     1
          1     1     1     1     1     1     1     1     1     1     1     1     1     1     1     1     1     1     1     1
          1     1     1     1     1     1     1     1     1     1     1     1     1     1     1     1     1     1     1     1
          1     1     1     1     1     1     1     1     1     1     1     1     1     1     1     1     1     1     1     1
          1     1     1     1     1     1     1     1     1     1     1     1     1     1     1     1     1     1     1     1
          1     1     1     1     1     1     1     1     1     1     1     1     1     1     1     1     1     1     1     1
          1     1     1     1     1     1     1     1     1     1     1     1     1     1     1     1     1     1     1     1
          1     1     1     1     1     1
  24      0     0     0     0     0     0     0     1     1     1     1     1     1     1     1     1     1     1     1     1
          1     1     1     1     1     1     1     1     1     1     1     1     1     1     1     1     1     1     1     1
          1     1     1     1     1     1     1     1     1     1     1     1     1     1     1     1     1     1     1     1
          1     1     1     1     1     1     1     1     1     1     1     1     1     1     1     1     1     1     1     1
          1     1     1     1     1     1     1     1     1     1     1     1     1     1     1     1     1     1     1     1
          1     1     1     1     1     1     1     1     1     1     1     1     1     1     1     1     1     1     1     1
          1     1     1     1     1     1     1     1     1     1     1     1     1     1     1     1     1     1     1     1
          1     1     1     1     1     1     1     1     1     1     1     1     1     1     1     1     1     1     1     1
          1     1     1     1     1     1     1     1     1     1     1     1     1     1     1     1     1     1     1     1
          1     1     1     1     1     1
  25      0     0     0     0     0     0     0     0     1     1     1     1     1     1     1     1     1     1     1     1
          1     1     1     1     1     1     1     1     1     1     1     1     1     1     1     1     1     1     1     1
          1     1     1     1     1     1     1     1     1     1     1     1     1     1     1     1     1     1     1     1
          1     1     1     1     1     1     1     1     1     1     1     1     1     1     1     1     1     1     1     1
          1     1     1     1     1     1     1     1     1     1     1     1     1     1     1     1     1     1     1     1
          1     1     1     1     1     1     1     1     1     1     1     1     1     1     1     1     1     1     1     1
          1     1     1     1     1     1     1     1     1     1     1     1     1     1     1     1     1     1     1     1
          1     1     1     1     1     1     1     1     1     1     1     1     1     1     1     1     1     1     1     1
          1     1     1     1     1     1     1     1     1     1     1     1     1     1     1     1     1     1     1     1
          1     1     1     1     1     1
  26      0     0     0     0     0     0     0     0     1     1     1     1     1     1     1     1     1     1     1     1
          1     1     1     1     1     1     1     1     1     1     1     1     1     1     1     1     1     1     1     1
          1     1     1     1     1     1     1     1     1     1     1     1     1     1     1     1     1     1     1     1
          1     1     1     1     1     1     1     1     1     1     1     1     1     1     1     1     1     1     1     1
          1     1     1     1     1     1     1     1     1     1     1     1     1     1     1     1     1     1     1     1
          1     1     1     1     1     1     1     1     1     1     1     1     1     1     1     1     1     1     1     1
          1     1     1     1     1     1     1     1     1     1     1     1     1     1     1     1     1     1     1     1
          1     1     1     1     1     1     1     1     1     1     1     1     1     1     1     1     1     1     1     1
          1     1     1     1     1     1     1     1     1     1     1     1     1     1     1     1     1     1     1     1
          1     1     1     1     1     1
  27      0     0     0     0     0     0     0     0     1     1     1     1     1     1     1     1     1     1     1     1
          1     1     1     1     1     1     1     1     1     1     1     1     1     1     1     1     1     1     1     1
          1     1     1     1     1     1     1     1     1     1     1     1     1     1     1     1     1     1     1     1
          1     1     1     1     1     1     1     1     1     1     1     1     1     1     1     1     1     1     1     1
          1     1     1     1     1     1     1     1     1     1     1     1     1     1     1     1     1     1     1     1
          1     1     1     1     1     1     1     1     1     1     1     1     1     1     1     1     1     1     1     1
          1     1     1     1     1     1     1     1     1     1     1     1     1     1     1     1     1     1     1     1
          1     1     1     1     1     1     1     1     1     1     1     1     1     1     1     1     1     1     1     1
          1     1     1     1     1     1     1     1     1     1     1     1     1     1     1     1     1     1     1     1
          1     1     1     1     1     1
  28      0     0     0     0     0     0     0     0     1     1     1     1     1     1     1     1     1     1     1     1
          1     1     1     1     1     1     1     1     1     1     1     1     1     1     1     1     1     1     1     1
          1     1     1     1     1     1     1     1     1     1     1     1     1     1     1     1     1     1     1     1
          1     1     1     1     1     1     1     1     1     1     1     1     1     1     1     1     1     1     1     1
          1     1     1     1     1     1     1     1     1     1     1     1     1     1     1     1     1     1     1     1
          1     1     1     1     1     1     1     1     1     1     1     1     1     1     1     1     1     1     1     1
          1     1     1     1     1     1     1     1     1     1     1     1     1     1     1     1     1     1     1     1
          1     1     1     1     1     1     1     1     1     1     1     1     1     1     1     1     1     1     1     1
          1     1     1     1     1     1     1     1     1     1     1     1     1     1     1     1     1     1     1     1
          1     1     1     1     1     1
  29      0     0     0     0     0     0     0     0     1     1     1     1     1     1     1     1     1     1     1     1
          1     1     1     1     1     1     1     1     1     1     1     1     1     1     1     1     1     1     1     1
          1     1     1     1     1     1     1     1     1     1     1     1     1     1     1     1     1     1     1     1
          1     1     1     1     1     1     1     1     1     1     1     1     1     1     1     1     1     1     1     1
          1     1     1     1     1     1     1     1     1     1     1     1     1     1     1     1     1     1     1     1
          1     1     1     1     1     1     1     1     1     1     1     1     1     1     1     1     1     1     1     1
          1     1     1     1     1     1     1     1     1     1     1     1     1     1     1     1     1     1     1     1
          1     1     1     1     1     1     1     1     1     1     1     1     1     1     1     1     1     1     1     1
          1     1     1     1     1     1     1     1     1     1     1     1     1     1     1     1     1     1     1     1
          1     1     1     1     1     1
  30      0     0     0     0     0     0     0     0     1     1     1     1     1     1     1     1     1     1     1     1
          1     1     1     1     1     1     1     1     1     1     1     1     1     1     1     1     1     1     1     1
          1     1     1     1     1     1     1     1     1     1     1     1     1     1     1     1     1     1     1     1
          1     1     1     1     1     1     1     1     1     1     1     1     1     1     1     1     1     1     1     1
          1     1     1     1     1     1     1     1     1     1     1     1     1     1     1     1     1     1     1     1
          1     1     1     1     1     1     1     1     1     1     1     1     1     1     1     1     1     1     1     1
          1     1     1     1     1     1     1     1     1     1     1     1     1     1     1     1     1     1     1     1
          1     1     1     1     1     1     1     1     1     1     1     1     1     1     1     1     1     1     1     1
          1     1     1     1     1     1     1     1     1     1     1     1     1     1     1     1     1     1     1     1
          1     1     1     1     1     1
  31      0     0     0     0     0     0     0     0     0     1     1     1     1     1     1     1     1     1     1     1
          1     1     1     1     1     1     1     1     1     1     1     1     1     1     1     1     1     1     1     1
          1     1     1     1     1     1     1     1     1     1     1     1     1     1     1     1     1     1     1     1
          1     1     1     1     1     1     1     1     1     1     1     1     1     1     1     1     1     1     1     1
          1     1     1     1     1     1     1     1     1     1     1     1     1     1     1     1     1     1     1     1
          1     1     1     1     1     1     1     1     1     1     1     1     1     1     1     1     1     1     1     1
          1     1     1     1     1     1     1     1     1     1     1     1     1     1     1     1     1     1     1     1
          1     1     1     1     1     1     1     1     1     1     1     1     1     1     1     1     1     1     1     1
          1     1     1     1     1     1     1     1     1     1     1     1     1     1     1     1     1     1     1     1
          1     1     1     1     1     1
  32      0     0     0     0     0     0     0     0     0     1     1     1     1     1     1     1     1     1     1     1
          1     1     1     1     1     1     1     1     1     1     1     1     1     1     1     1     1     1     1     1
          1     1     1     1     1     1     1     1     1     1     1     1     1     1     1     1     1     1     1     1
          1     1     1     1     1     1     1     1     1     1     1     1     1     1     1     1     1     1     1     1
          1     1     1     1     1     1     1     1     1     1     1     1     1     1     1     1     1     1     1     1
          1     1     1     1     1     1     1     1     1     1     1     1     1     1     1     1     1     1     1     1
          1     1     1     1     1     1     1     1     1     1     1     1     1     1     1     1     1     1     1     1
          1     1     1     1     1     1     1     1     1     1     1     1     1     1     1     1     1     1     1     1
          1     1     1     1     1     1     1     1     1     1     1     1     1     1     1     1     1     1     1     1
          1     1     1     1     1     1
  33      0     0     0     0     0     0     0     0     0     1     1     1     1     1     1     1     1     1     1     1
          1     1     1     1     1     1     1     1     1     1     1     1     1     1     1     1     1     1     1     1
          1     1     1     1     1     1     1     1     1     1     1     1     1     1     1     1     1     1     1     1
          1     1     1     1     1     1     1     1     1     1     1     1     1     1     1     1     1     1     1     1
          1     1     1     1     1     1     1     1     1     1     1     1     1     1     1     1     1     1     1     1
          1     1     1     1     1     1     1     1     1     1     1     1     1     1     1     1     1     1     1     1
          1     1     1     1     1     1     1     1     1     1     1     1     1     1     1     1     1     1     1     1
          1     1     1     1     1     1     1     1     1     1     1     1     1     1     1     1     1     1     1     1
          1     1     1     1     1     1     1     1     1     1     1     1     1     1     1     1     1     1     1     1
          1     1     1     1     1     1
  34      0     0     0     0     0     0     0     0     0     1     1     1     1     1     1     1     1     1     1     1
          1     1     1     1     1     1     1     1     1     1     1     1     1     1     1     1     1     1     1     1
          1     1     1     1     1     1     1     1     1     1     1     1     1     1     1     1     1     1     1     1
          1     1     1     1     1     1     1     1     1     1     1     1     1     1     1     1     1     1     1     1
          1     1     1     1     1     1     1     1     1     1     1     1     1     1     1     1     1     1     1     1
          1     1     1     1     1     1     1     1     1     1     1     1     1     1     1     1     1     1     1     1
          1     1     1     1     1     1     1     1     1     1     1     1     1     1     1     1     1     1     1     1
          1     1     1     1     1     1     1     1     1     1     1     1     1     1     1     1     1     1     1     1
          1     1     1     1     1     1     1     1     1     1     1     1     1     1     1     1     1     1     1     1
          1     1     1     1     1     1
  35      0     0     0     0     0     0     0     0     0     1     1     1     1     1     1     1     1     1     1     1
          1     1     1     1     1     1     1     1     1     1     1     1     1     1     1     1     1     1     1     1
          1     1     1     1     1     1     1     1     1     1     1     1     1     1     1     1     1     1     1     1
          1     1     1     1     1     1     1     1     1     1     1     1     1     1     1     1     1     1     1     1
          1     1     1     1     1     1     1     1     1     1     1     1     1     1     1     1     1     1     1     1
          1     1     1     1     1     1     1     1     1     1     1     1     1     1     1     1     1     1     1     1
          1     1     1     1     1     1     1     1     1     1     1     1     1     1     1     1     1     1     1     1
          1     1     1     1     1     1     1     1     1     1     1     1     1     1     1     1     1     1     1     1
          1     1     1     1     1     1     1     1     1     1     1     1     1     1     1     1     1     1     1     1
          1     1     1     1     1     1
  36      0     0     0     0     0     0     0     0     0     1     1     1     1     1     1     1     1     1     1     1
          1     1     1     1     1     1     1     1     1     1     1     1     1     1     1     1     1     1     1     1
          1     1     1     1     1     1     1     1     1     1     1     1     1     1     1     1     1     1     1     1
          1     1     1     1     1     1     1     1     1     1     1     1     1     1     1     1     1     1     1     1
          1     1     1     1     1     1     1     1     1     1     1     1     1     1     1     1     1     1     1     1
          1     1     1     1     1     1     1     1     1     1     1     1     1     1     1     1     1     1     1     1
          1     1     1     1     1     1     1     1     1     1     1     1     1     1     1     1     1     1     1     1
          1     1     1     1     1     1     1     1     1     1     1     1     1     1     1     1     1     1     1     1
          1     1     1     1     1     1     1     1     1     1     1     1     1     1     1     1     1     1     1     1
          1     1     1     1     1     1
  37      0     0     0     0     0     0     0     0     0     1     1     1     1     1     1     1     1     1     1     1
          1     1     1     1     1     1     1     1     1     1     1     1     1     1     1     1     1     1     1     1
          1     1     1     1     1     1     1     1     1     1     1     1     1     1     1     1     1     1     1     1
          1     1     1     1     1     1     1     1     1     1     1     1     1     1     1     1     1     1     1     1
          1     1     1     1     1     1     1     1     1     1     1     1     1     1     1     1     1     1     1     1
          1     1     1     1     1     1     1     1     1     1     1     1     1     1     1     1     1     1     1     1
          1     1     1     1     1     1     1     1     1     1     1     1     1     1     1     1     1     1     1     1
          1     1     1     1     1     1     1     1     1     1     1     1     1     1     1     1     1     1     1     1
          1     1     1     1     1     1     1     1     1     1     1     1     1     1     1     1     1     1     1     1
          1     1     1     1     1     1
  38      0     0     0     0     0     0     0     0     0     0     1     1     1     1     1     1     1     1     1     1
          1     1     1     1     1     1     1     1     1     1     1     1     1     1     1     1     1     1     1     1
          1     1     1     1     1     1     1     1     1     1     1     1     1     1     1     1     1     1     1     1
          1     1     1     1     1     1     1     1     1     1     1     1     1     1     1     1     1     1     1     1
          1     1     1     1     1     1     1     1     1     1     1     1     1     1     1     1     1     1     1     1
          1     1     1     1     1     1     1     1     1     1     1     1     1     1     1     1     1     1     1     1
          1     1     1     1     1     1     1     1     1     1     1     1     1     1     1     1     1     1     1     1
          1     1     1     1     1     1     1     1     1     1     1     1     1     1     1     1     1     1     1     1
          1     1     1     1     1     1     1     1     1     1     1     1     1     1     1     1     1     1     1     1
          1     1     1     1     1     1
  39      0     0     0     0     0     0     0     0     0     0     1     1     1     1     1     1     1     1     1     1
          1     1     1     1     1     1     1     1     1     1     1     1     1     1     1     1     1     1     1     1
          1     1     1     1     1     1     1     1     1     1     1     1     1     1     1     1     1     1     1     1
          1     1     1     1     1     1     1     1     1     1     1     1     1     1     1     1     1     1     1     1
          1     1     1     1     1     1     1     1     1     1     1     1     1     1     1     1     1     1     1     1
          1     1     1     1     1     1     1     1     1     1     1     1     1     1     1     1     1     1     1     1
          1     1     1     1     1     1     1     1     1     1     1     1     1     1     1     1     1     1     1     1
          1     1     1     1     1     1     1     1     1     1     1     1     1     1     1     1     1     1     1     1
          1     1     1     1     1     1     1     1     1     1     1     1     1     1     1     1     1     1     1     1
          1     1     1     1     1     1
  40      0     0     0     0     0     0     0     0     0     0     1     1     1     1     1     1     1     1     1     1
          1     1     1     1     1     1     1     1     1     1     1     1     1     1     1     1     1     1     1     1
          1     1     1     1     1     1     1     1     1     1     1     1     1     1     1     1     1     1     1     1
          1     1     1     1     1     1     1     1     1     1     1     1     1     1     1     1     1     1     1     1
          1     1     1     1     1     1     1     1     1     1     1     1     1     1     1     1     1     1     1     1
          1     1     1     1     1     1     1     1     1     1     1     1     1     1     1     1     1     1     1     1
          1     1     1     1     1     1     1     1     1     1     1     1     1     1     1     1     1     1     1     1
          1     1     1     1     1     1     1     1     1     1     1     1     1     1     1     1     1     1     1     1
          1     1     1     1     1     1     1     1     1     1     1     1     1     1     1     1     1     1     1     1
          1     1     1     1     1     1
  41      0     0     0     0     0     0     0     0     0     0     1     1     1     1     1     1     1     1     1     1
          1     1     1     1     1     1     1     1     1     1     1     1     1     1     1     1     1     1     1     1
          1     1     1     1     1     1     1     1     1     1     1     1     1     1     1     1     1     1     1     1
          1     1     1     1     1     1     1     1     1     1     1     1     1     1     1     1     1     1     1     1
          1     1     1     1     1     1     1     1     1     1     1     1     1     1     1     1     1     1     1     1
          1     1     1     1     1     1     1     1     1     1     1     1     1     1     1     1     1     1     1     1
          1     1     1     1     1     1     1     1     1     1     1     1     1     1     1     1     1     1     1     1
          1     1     1     1     1     1     1     1     1     1     1     1     1     1     1     1     1     1     1     1
          1     1     1     1     1     1     1     1     1     1     1     1     1     1     1     1     1     1     1     1
          1     1     1     1     1     1
  42      0     0     0     0     0     0     0     0     0     0     1     1     1     1     1     1     1     1     1     1
          1     1     1     1     1     1     1     1     1     1     1     1     1     1     1     1     1     1     1     1
          1     1     1     1     1     1     1     1     1     1     1     1     1     1     1     1     1     1     1     1
          1     1     1     1     1     1     1     1     1     1     1     1     1     1     1     1     1     1     1     1
          1     1     1     1     1     1     1     1     1     1     1     1     1     1     1     1     1     1     1     1
          1     1     1     1     1     1     1     1     1     1     1     1     1     1     1     1     1     1     1     1
          1     1     1     1     1     1     1     1     1     1     1     1     1     1     1     1     1     1     1     1
          1     1     1     1     1     1     1     1     1     1     1     1     1     1     1     1     1     1     1     1
          1     1     1     1     1     1     1     1     1     1     1     1     1     1     1     1     1     1     1     1
          1     1     1     1     1     1
  43      0     0     0     0     0     0     0     0     0     0     0     1     1     1     1     1     1     1     1     1
          1     1     1     1     1     1     1     1     1     1     1     1     1     1     1     1     1     1     1     1
          1     1     1     1     1     1     1     1     1     1     1     1     1     1     1     1     1     1     1     1
          1     1     1     1     1     1     1     1     1     1     1     1     1     1     1     1     1     1     1     1
          1     1     1     1     1     1     1     1     1     1     1     1     1     1     1     1     1     1     1     1
          1     1     1     1     1     1     1     1     1     1     1     1     1     1     1     1     1     1     1     1
          1     1     1     1     1     1     1     1     1     1     1     1     1     1     1     1     1     1     1     1
          1     1     1     1     1     1     1     1     1     1     1     1     1     1     1     1     1     1     1     1
          1     1     1     1     1     1     1     1     1     1     1     1     1     1     1     1     1     1     1     1
          1     1     1     1     1     1
  44      0     0     0     0     0     0     0     0     0     0     0     1     1     1     1     1     1     1     1     1
          1     1     1     1     1     1     1     1     1     1     1     1     1     1     1     1     1     1     1     1
          1     1     1     1     1     1     1     1     1     1     1     1     1     1     1     1     1     1     1     1
          1     1     1     1     1     1     1     1     1     1     1     1     1     1     1     1     1     1     1     1
          1     1     1     1     1     1     1     1     1     1     1     1     1     1     1     1     1     1     1     1
          1     1     1     1     1     1     1     1     1     1     1     1     1     1     1     1     1     1     1     1
          1     1     1     1     1     1     1     1     1     1     1     1     1     1     1     1     1     1     1     1
          1     1     1     1     1     1     1     1     1     1     1     1     1     1     1     1     1     1     1     1
          1     1     1     1     1     1     1     1     1     1     1     1     1     1     1     1     1     1     1     1
          1     1     1     1     1     1
  45      0     0     0     0     0     0     0     0     0     0     0     1     1     1     1     1     1     1     1     1
          1     1     1     1     1     1     1     1     1     1     1     1     1     1     1     1     1     1     1     1
          1     1     1     1     1     1     1     1     1     1     1     1     1     1     1     1     1     1     1     1
          1     1     1     1     1     1     1     1     1     1     1     1     1     1     1     1     1     1     1     1
          1     1     1     1     1     1     1     1     1     1     1     1     1     1     1     1     1     1     1     1
          1     1     1     1     1     1     1     1     1     1     1     1     1     1     1     1     1     1     1     1
          1     1     1     1     1     1     1     1     1     1     1     1     1     1     1     1     1     1     1     1
          1     1     1     1     1     1     1     1     1     1     1     1     1     1     1     1     1     1     1     1
          1     1     1     1     1     1     1     1     1     1     1     1     1     1     1     1     1     1     1     1
          1     1     1     1     1     1
  46      0     0     0     0     0     0     0     0     0     0     0     1     1     1     1     1     1     1     1     1
          1     1     1     1     1     1     1     1     1     1     1     1     1     1     1     1     1     1     1     1
          1     1     1     1     1     1     1     1     1     1     1     1     1     1     1     1     1     1     1     1
          1     1     1     1     1     1     1     1     1     1     1     1     1     1     1     1     1     1     1     1
          1     1     1     1     1     1     1     1     1     1     1     1     1     1     1     1     1     1     1     1
          1     1     1     1     1     1     1     1     1     1     1     1     1     1     1     1     1     1     1     1
          1     1     1     1     1     1     1     1     1     1     1     1     1     1     1     1     1     1     1     1
          1     1     1     1     1     1     1     1     1     1     1     1     1     1     1     1     1     1     1     1
          1     1     1     1     1     1     1     1     1     1     1     1     1     1     1     1     1     1     1     1
          1     1     1     1     1     1
  47      0     0     0     0     0     0     0     0     0     0     0     1     1     1     1     1     1     1     1     1
          1     1     1     1     1     1     1     1     1     1     1     1     1     1     1     1     1     1     1     1
          1     1     1     1     1     1     1     1     1     1     1     1     1     1     1     1     1     1     1     1
          1     1     1     1     1     1     1     1     1     1     1     1     1     1     1     1     1     1     1     1
          1     1     1     1     1     1     1     1     1     1     1     1     1     1     1     1     1     1     1     1
          1     1     1     1     1     1     1     1     1     1     1     1     1     1     1     1     1     1     1     1
          1     1     1     1     1     1     1     1     1     1     1     1     1     1     1     1     1     1     1     1
          1     1     1     1     1     1     1     1     1     1     1     1     1     1     1     1     1     1     1     1
          1     1     1     1     1     1     1     1     1     1     1     1     1     1     1     1     1     1     1     1
          1     1     1     1     1     1
  48      0     0     0     0     0     0     0     0     0     0     0     0     1     1     1     1     1     1     1     1
          1     1     1     1     1     1     1     1     1     1     1     1     1     1     1     1     1     1     1     1
          1     1     1     1     1     1     1     1     1     1     1     1     1     1     1     1     1     1     1     1
          1     1     1     1     1     1     1     1     1     1     1     1     1     1     1     1     1     1     1     1
          1     1     1     1     1     1     1     1     1     1     1     1     1     1     1     1     1     1     1     1
          1     1     1     1     1     1     1     1     1     1     1     1     1     1     1     1     1     1     1     1
          1     1     1     1     1     1     1     1     1     1     1     1     1     1     1     1     1     1     1     1
          1     1     1     1     1     1     1     1     1     1     1     1     1     1     1     1     1     1     1     1
          1     1     1     1     1     1     1     1     1     1     1     1     1     1     1     1     1     1     1     1
          1     1     1     1     1     1
  49      0     0     0     0     0     0     0     0     0     0     0     0     1     1     1     1     1     1     1     1
          1     1     1     1     1     1     1     1     1     1     1     1     1     1     1     1     1     1     1     1
          1     1     1     1     1     1     1     1     1     1     1     1     1     1     1     1     1     1     1     1
          1     1     1     1     1     1     1     1     1     1     1     1     1     1     1     1     1     1     1     1
          1     1     1     1     1     1     1     1     1     1     1     1     1     1     1     1     1     1     1     1
          1     1     1     1     1     1     1     1     1     1     1     1     1     1     1     1     1     1     1     1
          1     1     1     1     1     1     1     1     1     1     1     1     1     1     1     1     1     1     1     1
          1     1     1     1     1     1     1     1     1     1     1     1     1     1     1     1     1     1     1     1
          1     1     1     1     1     1     1     1     1     1     1     1     1     1     1     1     1     1     1     1
          1     1     1     1     1     1
  50      0     0     0     0     0     0     0     0     0     0     0     0     1     1     1     1     1     1     1     1
          1     1     1     1     1     1     1     1     1     1     1     1     1     1     1     1     1     1     1     1
          1     1     1     1     1     1     1     1     1     1     1     1     1     1     1     1     1     1     1     1
          1     1     1     1     1     1     1     1     1     1     1     1     1     1     1     1     1     1     1     1
          1     1     1     1     1     1     1     1     1     1     1     1     1     1     1     1     1     1     1     1
          1     1     1     1     1     1     1     1     1     1     1     1     1     1     1     1     1     1     1     1
          1     1     1     1     1     1     1     1     1     1     1     1     1     1     1     1     1     1     1     1
          1     1     1     1     1     1     1     1     1     1     1     1     1     1     1     1     1     1     1     1
          1     1     1     1     1     1     1     1     1     1     1     1     1     1     1     1     1     1     1     1
          1     1     1     1     1     1
  51      0     0     0     0     0     0     0     0     0     0     0     0     1     1     1     1     1     1     1     1
          1     1     1     1     1     1     1     1     1     1     1     1     1     1     1     1     1     1     1     1
          1     1     1     1     1     1     1     1     1     1     1     1     1     1     1     1     1     1     1     1
          1     1     1     1     1     1     1     1     1     1     1     1     1     1     1     1     1     1     1     1
          1     1     1     1     1     1     1     1     1     1     1     1     1     1     1     1     1     1     1     1
          1     1     1     1     1     1     1     1     1     1     1     1     1     1     1     1     1     1     1     1
          1     1     1     1     1     1     1     1     1     1     1     1     1     1     1     1     1     1     1     1
          1     1     1     1     1     1     1     1     1     1     1     1     1     1     1     1     1     1     1     1
          1     1     1     1     1     1     1     1     1     1     1     1     1     1     1     1     1     1     1     1
          1     1     1     1     1     1
  52      0     0     0     0     0     0     0     0     0     0     0     0     1     1     1     1     1     1     1     1
          1     1     1     1     1     1     1     1     1     1     1     1     1     1     1     1     1     1     1     1
          1     1     1     1     1     1     1     1     1     1     1     1     1     1     1     1     1     1     1     1
          1     1     1     1     1     1     1     1     1     1     1     1     1     1     1     1     1     1     1     1
          1     1     1     1     1     1     1     1     1     1     1     1     1     1     1     1     1     1     1     1
          1     1     1     1     1     1     1     1     1     1     1     1     1     1     1     1     1     1     1     1
          1     1     1     1     1     1     1     1     1     1     1     1     1     1     1     1     1     1     1     1
          1     1     1     1     1     1     1     1     1     1     1     1     1     1     1     1     1     1     1     1
          1     1     1     1     1     1     1     1     1     1     1     1     1     1     1     1     1     1     1     1
          1     1     1     1     1     1
  53      0     0     0     0     0     0     0     0     0     0     0     0     0     1     1     1     1     1     1     1
          1     1     1     1     1     1     1     1     1     1     1     1     1     1     1     1     1     1     1     1
          1     1     1     1     1     1     1     1     1     1     1     1     1     1     1     1     1     1     1     1
          1     1     1     1     1     1     1     1     1     1     1     1     1     1     1     1     1     1     1     1
          1     1     1     1     1     1     1     1     1     1     1     1     1     1     1     1     1     1     1     1
          1     1     1     1     1     1     1     1     1     1     1     1     1     1     1     1     1     1     1     1
          1     1     1     1     1     1     1     1     1     1     1     1     1     1     1     1     1     1     1     1
          1     1     1     1     1     1     1     1     1     1     1     1     1     1     1     1     1     1     1     1
          1     1     1     1     1     1     1     1     1     1     1     1     1     1     1     1     1     1     1     1
          1     1     1     1     1     1
  54      0     0     0     0     0     0     0     0     0     0     0     0     0     1     1     1     1     1     1     1
          1     1     1     1     1     1     1     1     1     1     1     1     1     1     1     1     1     1     1     1
          1     1     1     1     1     1     1     1     1     1     1     1     1     1     1     1     1     1     1     1
          1     1     1     1     1     1     1     1     1     1     1     1     1     1     1     1     1     1     1     1
          1     1     1     1     1     1     1     1     1     1     1     1     1     1     1     1     1     1     1     1
          1     1     1     1     1     1     1     1     1     1     1     1     1     1     1     1     1     1     1     1
          1     1     1     1     1     1     1     1     1     1     1     1     1     1     1     1     1     1     1     1
          1     1     1     1     1     1     1     1     1     1     1     1     1     1     1     1     1     1     1     1
          1     1     1     1     1     1     1     1     1     1     1     1     1     1     1     1     1     1     1     1
          1     1     1     1     1     1
  55      0     0     0     0     0     0     0     0     0     0     0     0     0     1     1     1     1     1     1     1
          1     1     1     1     1     1     1     1     1     1     1     1     1     1     1     1     1     1     1     1
          1     1     1     1     1     1     1     1     1     1     1     1     1     1     1     1     1     1     1     1
          1     1     1     1     1     1     1     1     1     1     1     1     1     1     1     1     1     1     1     1
          1     1     1     1     1     1     1     1     1     1     1     1     1     1     1     1     1     1     1     1
          1     1     1     1     1     1     1     1     1     1     1     1     1     1     1     1     1     1     1     1
          1     1     1     1     1     1     1     1     1     1     1     1     1     1     1     1     1     1     1     1
          1     1     1     1     1     1     1     1     1     1     1     1     1     1     1     1     1     1     1     1
          1     1     1     1     1     1     1     1     1     1     1     1     1     1     1     1     1     1     1     1
          1     1     1     1     1     1
  56      0     0     0     0     0     0     0     0     0     0     0     0     0     1     1     1     1     1     1     1
          1     1     1     1     1     1     1     1     1     1     1     1     1     1     1     1     1     1     1     1
          1     1     1     1     1     1     1     1     1     1     1     1     1     1     1     1     1     1     1     1
          1     1     1     1     1     1     1     1     1     1     1     1     1     1     1     1     1     1     1     1
          1     1     1     1     1     1     1     1     1     1     1     1     1     1     1     1     1     1     1     1
          1     1     1     1     1     1     1     1     1     1     1     1     1     1     1     1     1     1     1     1
          1     1     1     1     1     1     1     1     1     1     1     1     1     1     1     1     1     1     1     1
          1     1     1     1     1     1     1     1     1     1     1     1     1     1     1     1     1     1     1     1
          1     1     1     1     1     1     1     1     1     1     1     1     1     1     1     1     1     1     1     1
          1     1     1     1     1     1
  57      0     0     0     0     0     0     0     0     0     0     0     0     0     1     1     1     1     1     1     1
          1     1     1     1     1     1     1     1     1     1     1     1     1     1     1     1     1     1     1     1
          1     1     1     1     1     1     1     1     1     1     1     1     1     1     1     1     1     1     1     1
          1     1     1     1     1     1     1     1     1     1     1     1     1     1     1     1     1     1     1     1
          1     1     1     1     1     1     1     1     1     1     1     1     1     1     1     1     1     1     1     1
          1     1     1     1     1     1     1     1     1     1     1     1     1     1     1     1     1     1     1     1
          1     1     1     1     1     1     1     1     1     1     1     1     1     1     1     1     1     1     1     1
          1     1     1     1     1     1     1     1     1     1     1     1     1     1     1     1     1     1     1     1
          1     1     1     1     1     1     1     1     1     1     1     1     1     1     1     1     1     1     1     1
          1     1     1     1     1     1
  58      0     0     0     0     0     0     0     0     0     0     0     0     0     1     1     1     1     1     1     1
          1     1     1     1     1     1     1     1     1     1     1     1     1     1     1     1     1     1     1     1
          1     1     1     1     1     1     1     1     1     1     1     1     1     1     1     1     1     1     1     1
          1     1     1     1     1     1     1     1     1     1     1     1     1     1     1     1     1     1     1     1
          1     1     1     1     1     1     1     1     1     1     1     1     1     1     1     1     1     1     1     1
          1     1     1     1     1     1     1     1     1     1     1     1     1     1     1     1     1     1     1     1
          1     1     1     1     1     1     1     1     1     1     1     1     1     1     1     1     1     1     1     1
          1     1     1     1     1     1     1     1     1     1     1     1     1     1     1     1     1     1     1     1
          1     1     1     1     1     1     1     1     1     1     1     1     1     1     1     1     1     1     1     1
          1     1     1     1     1     1
  59      0     0     0     0     0     0     0     0     0     0     0     0     0     0     1     1     1     1     1     1
          1     1     1     1     1     1     1     1     1     1     1     1     1     1     1     1     1     1     1     1
          1     1     1     1     1     1     1     1     1     1     1     1     1     1     1     1     1     1     1     1
          1     1     1     1     1     1     1     1     1     1     1     1     1     1     1     1     1     1     1     1
          1     1     1     1     1     1     1     1     1     1     1     1     1     1     1     1     1     1     1     1
          1     1     1     1     1     1     1     1     1     1     1     1     1     1     1     1     1     1     1     1
          1     1     1     1     1     1     1     1     1     1     1     1     1     1     1     1     1     1     1     1
          1     1     1     1     1     1     1     1     1     1     1     1     1     1     1     1     1     1     1     1
          1     1     1     1     1     1     1     1     1     1     1     1     1     1     1     1     1     1     1     1
          1     1     1     1     1     1
  60      0     0     0     0     0     0     0     0     0     0     0     0     0     0     1     1     1     1     1     1
          1     1     1     1     1     1     1     1     1     1     1     1     1     1     1     1     1     1     1     1
          1     1     1     1     1     1     1     1     1     1     1     1     1     1     1     1     1     1     1     1
          1     1     1     1     1     1     1     1     1     1     1     1     1     1     1     1     1     1     1     1
          1     1     1     1     1     1     1     1     1     1     1     1     1     1     1     1     1     1     1     1
          1     1     1     1     1     1     1     1     1     1     1     1     1     1     1     1     1     1     1     1
          1     1     1     1     1     1     1     1     1     1     1     1     1     1     1     1     1     1     1     1
          1     1     1     1     1     1     1     1     1     1     1     1     1     1     1     1     1     1     1     1
          1     1     1     1     1     1     1     1     1     1     1     1     1     1     1     1     1     1     1     1
          1     1     1     1     1     1
  61      0     0     0     0     0     0     0     0     0     0     0     0     0     0     1     1     1     1     1     1
          1     1     1     1     1     1     1     1     1     1     1     1     1     1     1     1     1     1     1     1
          1     1     1     1     1     1     1     1     1     1     1     1     1     1     1     1     1     1     1     1
          1     1     1     1     1     1     1     1     1     1     1     1     1     1     1     1     1     1     1     1
          1     1     1     1     1     1     1     1     1     1     1     1     1     1     1     1     1     1     1     1
          1     1     1     1     1     1     1     1     1     1     1     1     1     1     1     1     1     1     1     1
          1     1     1     1     1     1     1     1     1     1     1     1     1     1     1     1     1     1     1     1
          1     1     1     1     1     1     1     1     1     1     1     1     1     1     1     1     1     1     1     1
          1     1     1     1     1     1     1     1     1     1     1     1     1     1     1     1     1     1     1     1
          1     1     1     1     1     1
  62      0     0     0     0     0     0     0     0     0     0     0     0     0     0     1     1     1     1     1     1
          1     1     1     1     1     1     1     1     1     1     1     1     1     1     1     1     1     1     1     1
          1     1     1     1     1     1     1     1     1     1     1     1     1     1     1     1     1     1     1     1
          1     1     1     1     1     1     1     1     1     1     1     1     1     1     1     1     1     1     1     1
          1     1     1     1     1     1     1     1     1     1     1     1     1     1     1     1     1     1     1     1
          1     1     1     1     1     1     1     1     1     1     1     1     1     1     1     1     1     1     1     1
          1     1     1     1     1     1     1     1     1     1     1     1     1     1     1     1     1     1     1     1
          1     1     1     1     1     1     1     1     1     1     1     1     1     1     1     1     1     1     1     1
          1     1     1     1     1     1     1     1     1     1     1     1     1     1     1     1     1     1     1     1
          1     1     1     1     1     1
  63      0     0     0     0     0     0     0     0     0     0     0     0     0     0     1     1     1     1     1     1
          1     1     1     1     1     1     1     1     1     1     1     1     1     1     1     1     1     1     1     1
          1     1     1     1     1     1     1     1     1     1     1     1     1     1     1     1     1     1     1     1
          1     1     1     1     1     1     1     1     1     1     1     1     1     1     1     1     1     1     1     1
          1     1     1     1     1     1     1     1     1     1     1     1     1     1     1     1     1     1     1     1
          1     1     1     1     1     1     1     1     1     1     1     1     1     1     1     1     1     1     1     1
          1     1     1     1     1     1     1     1     1     1     1     1     1     1     1     1     1     1     1     1
          1     1     1     1     1     1     1     1     1     1     1     1     1     1     1     1     1     1     1     1
          1     1     1     1     1     1     1     1     1     1     1     1     1     1     1     1     1     1     1     1
          1     1     1     1     1     1
  64      0     0     0     0     0     0     0     0     0     0     0     0     0     0     1     1     1     1     1     1
          1     1     1     1     1     1     1     1     1     1     1     1     1     1     1     1     1     1     1     1
          1     1     1     1     1     1     1     1     1     1     1     1     1     1     1     1     1     1     1     1
          1     1     1     1     1     1     1     1     1     1     1     1     1     1     1     1     1     1     1     1
          1     1     1     1     1     1     1     1     1     1     1     1     1     1     1     1     1     1     1     1
          1     1     1     1     1     1     1     1     1     1     1     1     1     1     1     1     1     1     1     1
          1     1     1     1     1     1     1     1     1     1     1     1     1     1     1     1     1     1     1     1
          1     1     1     1     1     1     1     1     1     1     1     1     1     1     1     1     1     1     1     1
          1     1     1     1     1     1     1     1     1     1     1     1     1     1     1     1     1     1     1     1
          1     1     1     1     1     1
  65      0     0     0     0     0     0     0     0     0     0     0     0     0     0     1     1     1     1     1     1
          1     1     1     1     1     1     1     1     1     1     1     1     1     1     1     1     1     1     1     1
          1     1     1     1     1     1     1     1     1     1     1     1     1     1     1     1     1     1     1     1
          1     1     1     1     1     1     1     1     1     1     1     1     1     1     1     1     1     1     1     1
          1     1     1     1     1     1     1     1     1     1     1     1     1     1     1     1     1     1     1     1
          1     1     1     1     1     1     1     1     1     1     1     1     1     1     1     1     1     1     1     1
          1     1     1     1     1     1     1     1     1     1     1     1     1     1     1     1     1     1     1     1
          1     1     1     1     1     1     1     1     1     1     1     1     1     1     1     1     1     1     1     1
          1     1     1     1     1     1     1     1     1     1     1     1     1     1     1     1     1     1     1     1
          1     1     1     1     1     1
  66      0     0     0     0     0     0     0     0     0     0     0     0     0     0     0     1     1     1     1     1
          1     1     1     1     1     1     1     1     1     1     1     1     1     1     1     1     1     1     1     1
          1     1     1     1     1     1     1     1     1     1     1     1     1     1     1     1     1     1     1     1
          1     1     1     1     1     1     1     1     1     1     1     1     1     1     1     1     1     1     1     1
          1     1     1     1     1     1     1     1     1     1     1     1     1     1     1     1     1     1     1     1
          1     1     1     1     1     1     1     1     1     1     1     1     1     1     1     1     1     1     1     1
          1     1     1     1     1     1     1     1     1     1     1     1     1     1     1     1     1     1     1     1
          1     1     1     1     1     1     1     1     1     1     1     1     1     1     1     1     1     1     1     1
          1     1     1     1     1     1     1     1     1     1     1     1     1     1     1     1     1     1     1     1
          1     1     1     1     1     1
  67      0     0     0     0     0     0     0     0     0     0     0     0     0     0     0     1     1     1     1     1
          1     1     1     1     1     1     1     1     1     1     1     1     1     1     1     1     1     1     1     1
          1     1     1     1     1     1     1     1     1     1     1     1     1     1     1     1     1     1     1     1
          1     1     1     1     1     1     1     1     1     1     1     1     1     1     1     1     1     1     1     1
          1     1     1     1     1     1     1     1     1     1     1     1     1     1     1     1     1     1     1     1
          1     1     1     1     1     1     1     1     1     1     1     1     1     1     1     1     1     1     1     1
          1     1     1     1     1     1     1     1     1     1     1     1     1     1     1     1     1     1     1     1
          1     1     1     1     1     1     1     1     1     1     1     1     1     1     1     1     1     1     1     1
          1     1     1     1     1     1     1     1     1     1     1     1     1     1     1     1     1     1     1     1
          1     1     1     1     1     1
  68      0     0     0     0     0     0     0     0     0     0     0     0     0     0     0     1     1     1     1     1
          1     1     1     1     1     1     1     1     1     1     1     1     1     1     1     1     1     1     1     1
          1     1     1     1     1     1     1     1     1     1     1     1     1     1     1     1     1     1     1     1
          1     1     1     1     1     1     1     1     1     1     1     1     1     1     1     1     1     1     1     1
          1     1     1     1     1     1     1     1     1     1     1     1     1     1     1     1     1     1     1     1
          1     1     1     1     1     1     1     1     1     1     1     1     1     1     1     1     1     1     1     1
          1     1     1     1     1     1     1     1     1     1     1     1     1     1     1     1     1     1     1     1
          1     1     1     1     1     1     1     1     1     1     1     1     1     1     1     1     1     1     1     1
          1     1     1     1     1     1     1     1     1     1     1     1     1     1     1     1     1     1     1     1
          1     1     1     1     1     1
  69      0     0     0     0     0     0     0     0     0     0     0     0     0     0     0     1     1     1     1     1
          1     1     1     1     1     1     1     1     1     1     1     1     1     1     1     1     1     1     1     1
          1     1     1     1     1     1     1     1     1     1     1     1     1     1     1     1     1     1     1     1
          1     1     1     1     1     1     1     1     1     1     1     1     1     1     1     1     1     1     1     1
          1     1     1     1     1     1     1     1     1     1     1     1     1     1     1     1     1     1     1     1
          1     1     1     1     1     1     1     1     1     1     1     1     1     1     1     1     1     1     1     1
          1     1     1     1     1     1     1     1     1     1     1     1     1     1     1     1     1     1     1     1
          1     1     1     1     1     1     1     1     1     1     1     1     1     1     1     1     1     1     1     1
          1     1     1     1     1     1     1     1     1     1     1     1     1     1     1     1     1     1     1     1
          1     1     1     1     1     1
  70      0     0     0     0     0     0     0     0     0     0     0     0     0     0     0     1     1     1     1     1
          1     1     1     1     1     1     1     1     1     1     1     1     1     1     1     1     1     1     1     1
          1     1     1     1     1     1     1     1     1     1     1     1     1     1     1     1     1     1     1     1
          1     1     1     1     1     1     1     1     1     1     1     1     1     1     1     1     1     1     1     1
          1     1     1     1     1     1     1     1     1     1     1     1     1     1     1     1     1     1     1     1
          1     1     1     1     1     1     1     1     1     1     1     1     1     1     1     1     1     1     1     1
          1     1     1     1     1     1     1     1     1     1     1     1     1     1     1     1     1     1     1     1
          1     1     1     1     1     1     1     1     1     1     1     1     1     1     1     1     1     1     1     1
          1     1     1     1     1     1     1     1     1     1     1     1     1     1     1     1     1     1     1     1
          1     1     1     1     1     1
  71      0     0     0     0     0     0     0     0     0     0     0     0     0     0     0     1     1     1     1     1
          1     1     1     1     1     1     1     1     1     1     1     1     1     1     1     1     1     1     1     1
          1     1     1     1     1     1     1     1     1     1     1     1     1     1     1     1     1     1     1     1
          1     1     1     1     1     1     1     1     1     1     1     1     1     1     1     1     1     1     1     1
          1     1     1     1     1     1     1     1     1     1     1     1     1     1     1     1     1     1     1     1
          1     1     1     1     1     1     1     1     1     1     1     1     1     1     1     1     1     1     1     1
          1     1     1     1     1     1     1     1     1     1     1     1     1     1     1     1     1     1     1     1
          1     1     1     1     1     1     1     1     1     1     1     1     1     1     1     1     1     1     1     1
          1     1     1     1     1     1     1     1     1     1     1     1     1     1     1     1     1     1     1     1
          1     1     1     1     1     1
  72      0     0     0     0     0     0     0     0     0     0     0     0     0     0     0     0     1     1     1     1
          1     1     1     1     1     1     1     1     1     1     1     1     1     1     1     1     1     1     1     1
          1     1     1     1     1     1     1     1     1     1     1     1     1     1     1     1     1     1     1     1
          1     1     1     1     1     1     1     1     1     1     1     1     1     1     1     1     1     1     1     1
          1     1     1     1     1     1     1     1     1     1     1     1     1     1     1     1     1     1     1     1
          1     1     1     1     1     1     1     1     1     1     1     1     1     1     1     1     1     1     1     1
          1     1     1     1     1     1     1     1     1     1     1     1     1     1     1     1     1     1     1     1
          1     1     1     1     1     1     1     1     1     1     1     1     1     1     1     1     1     1     1     1
          1     1     1     1     1     1     1     1     1     1     1     1     1     1     1     1     1     1     1     1
          1     1     1     1     1     1
  73      0     0     0     0     0     0     0     0     0     0     0     0     0     0     0     0     1     1     1     1
          1     1     1     1     1     1     1     1     1     1     1     1     1     1     1     1     1     1     1     1
          1     1     1     1     1     1     1     1     1     1     1     1     1     1     1     1     1     1     1     1
          1     1     1     1     1     1     1     1     1     1     1     1     1     1     1     1     1     1     1     1
          1     1     1     1     1     1     1     1     1     1     1     1     1     1     1     1     1     1     1     1
          1     1     1     1     1     1     1     1     1     1     1     1     1     1     1     1     1     1     1     1
          1     1     1     1     1     1     1     1     1     1     1     1     1     1     1     1     1     1     1     1
          1     1     1     1     1     1     1     1     1     1     1     1     1     1     1     1     1     1     1     1
          1     1     1     1     1     1     1     1     1     1     1     1     1     1     1     1     1     1     1     1
          1     1     1     1     1     1
  74      0     0     0     0     0     0     0     0     0     0     0     0     0     0     0     0     1     1     1     1
          1     1     1     1     1     1     1     1     1     1     1     1     1     1     1     1     1     1     1     1
          1     1     1     1     1     1     1     1     1     1     1     1     1     1     1     1     1     1     1     1
          1     1     1     1     1     1     1     1     1     1     1     1     1     1     1     1     1     1     1     1
          1     1     1     1     1     1     1     1     1     1     1     1     1     1     1     1     1     1     1     1
          1     1     1     1     1     1     1     1     1     1     1     1     1     1     1     1     1     1     1     1
          1     1     1     1     1     1     1     1     1     1     1     1     1     1     1     1     1     1     1     1
          1     1     1     1     1     1     1     1     1     1     1     1     1     1     1     1     1     1     1     1
          1     1     1     1     1     1     1     1     1     1     1     1     1     1     1     1     1     1     1     1
          1     1     1     1     1     1
  75      0     0     0     0     0     0     0     0     0     0     0     0     0     0     0     0     1     1     1     1
          1     1     1     1     1     1     1     1     1     1     1     1     1     1     1     1     1     1     1     1
          1     1     1     1     1     1     1     1     1     1     1     1     1     1     1     1     1     1     1     1
          1     1     1     1     1     1     1     1     1     1     1     1     1     1     1     1     1     1     1     1
          1     1     1     1     1     1     1     1     1     1     1     1     1     1     1     1     1     1     1     1
          1     1     1     1     1     1     1     1     1     1     1     1     1     1     1     1     1     1     1     1
          1     1     1     1     1     1     1     1     1     1     1     1     1     1     1     1     1     1     1     1
          1     1     1     1     1     1     1     1     1     1     1     1     1     1     1     1     1     1     1     1
          1     1     1     1     1     1     1     1     1     1     1     1     1     1     1     1     1     1     1     1
          1     1     1     1     1     1
  76      0     0     0     0     0     0     0     0     0     0     0     0     0     0     0     1     1     1     1     1
          1     1     1     1     1     1     1     1     1     1     1     1     1     1     1     1     1     1     1     1
          1     1     1     1     1     1     1     1     1     1     1     1     1     1     1     1     1     1     1     1
          1     1     1     1     1     1     1     1     1     1     1     1     1     1     1     1     1     1     1     1
          1     1     1     1     1     1     1     1     1     1     1     1     1     1     1     1     1     1     1     1
          1     1     1     1     1     1     1     1     1     1     1     1     1     1     1     1     1     1     1     1
          1     1     1     1     1     1     1     1     1     1     1     1     1     1     1     1     1     1     1     1
          1     1     1     1     1     1     1     1     1     1     1     1     1     1     1     1     1     1     1     1
          1     1     1     1     1     1     1     1     1     1     1     1     1     1     1     1     1     1     1     1
          1     1     1     1     1     1
  77      0     0     0     0     0     0     0     0     0     0     0     0     0     0     0     1     1     1     1     1
          1     1     1     1     1     1     1     1     1     1     1     1     1     1     1     1     1     1     1     1
          1     1     1     1     1     1     1     1     1     1     1     1     1     1     1     1     1     1     1     1
          1     1     1     1     1     1     1     1     1     1     1     1     1     1     1     1     1     1     1     1
          1     1     1     1     1     1     1     1     1     1     1     1     1     1     1     1     1     1     1     1
          1     1     1     1     1     1     1     1     1     1     1     1     1     1     1     1     1     1     1     1
          1     1     1     1     1     1     1     1     1     1     1     1     1     1     1     1     1     1     1     1
          1     1     1     1     1     1     1     1     1     1     1     1     1     1     1     1     1     1     1     1
          1     1     1     1     1     1     1     1     1     1     1     1     1     1     1     1     1     1     1     1
          1     1     1     1     1     1
  78      0     0     0     0     0     0     0     0     0     0     0     0     0     0     0     1     1     1     1     1
          1     1     1     1     1     1     1     1     1     1     1     1     1     1     1     1     1     1     1     1
          1     1     1     1     1     1     1     1     1     1     1     1     1     1     1     1     1     1     1     1
          1     1     1     1     1     1     1     1     1     1     1     1     1     1     1     1     1     1     1     1
          1     1     1     1     1     1     1     1     1     1     1     1     1     1     1     1     1     1     1     1
          1     1     1     1     1     1     1     1     1     1     1     1     1     1     1     1     1     1     1     1
          1     1     1     1     1     1     1     1     1     1     1     1     1     1     1     1     1     1     1     1
          1     1     1     1     1     1     1     1     1     1     1     1     1     1     1     1     1     1     1     1
          1     1     1     1     1     1     1     1     1     1     1     1     1     1     1     1     1     1     1     1
          1     1     1     1     1     1
  79      0     0     0     0     0     0     0     0     0     0     0     0     0     0     0     1     1     1     1     1
          1     1     1     1     1     1     1     1     1     1     1     1     1     1     1     1     1     1     1     1
          1     1     1     1     1     1     1     1     1     1     1     1     1     1     1     1     1     1     1     1
          1     1     1     1     1     1     1     1     1     1     1     1     1     1     1     1     1     1     1     1
          1     1     1     1     1     1     1     1     1     1     1     1     1     1     1     1     1     1     1     1
          1     1     1     1     1     1     1     1     1     1     1     1     1     1     1     1     1     1     1     1
          1     1     1     1     1     1     1     1     1     1     1     1     1     1     1     1     1     1     1     1
          1     1     1     1     1     1     1     1     1     1     1     1     1     1     1     1     1     1     1     1
          1     1     1     1     1     1     1     1     1     1     1     1     1     1     1     1     1     1     1     1
          1     1     1     1     1     1
  80      0     0     0     0     0     0     0     0     0     0     0     0     0     0     0     1     1     1     1     1
          1     1     1     1     1     1     1     1     1     1     1     1     1     1     1     1     1     1     1     1
          1     1     1     1     1     1     1     1     1     1     1     1     1     1     1     1     1     1     1     1
          1     1     1     1     1     1     1     1     1     1     1     1     1     1     1     1     1     1     1     1
          1     1     1     1     1     1     1     1     1     1     1     1     1     1     1     1     1     1     1     1
          1     1     1     1     1     1     1     1     1     1     1     1     1     1     1     1     1     1     1     1
          1     1     1     1     1     1     1     1     1     1     1     1     1     1     1     1     1     1     1     1
          1     1     1     1     1     1     1     1     1     1     1     1     1     1     1     1     1     1     1     1
          1     1     1     1     1     1     1     1     1     1     1     1     1     1     1     1     1     1     1     1
          1     1     1     1     1     1
  81      0     0     0     0     0     0     0     0     0     0     0     0     0     0     0     1     1     1     1     1
          1     1     1     1     1     1     1     1     1     1     1     1     1     1     1     1     1     1     1     1
          1     1     1     1     1     1     1     1     1     1     1     1     1     1     1     1     1     1     1     1
          1     1     1     1     1     1     1     1     1     1     1     1     1     1     1     1     1     1     1     1
          1     1     1     1     1     1     1     1     1     1     1     1     1     1     1     1     1     1     1     1
          1     1     1     1     1     1     1     1     1     1     1     1     1     1     1     1     1     1     1     1
          1     1     1     1     1     1     1     1     1     1     1     1     1     1     1     1     1     1     1     1
          1     1     1     1     1     1     1     1     1     1     1     1     1     1     1     1     1     1     1     1
          1     1     1     1     1     1     1     1     1     1     1     1     1     1     1     1     1     1     1     1
          1     1     1     1     1     1
  82      0     0     0     0     0     0     0     0     0     0     0     0     0     0     0     1     1     1     1     1
          1     1     1     1     1     1     1     1     1     1     1     1     1     1     1     1     1     1     1     1
          1     1     1     1     1     1     1     1     1     1     1     1     1     1     1     1     1     1     1     1
          1     1     1     1     1     1     1     1     1     1     1     1     1     1     1     1     1     1     1     1
          1     1     1     1     1     1     1     1     1     1     1     1     1     1     1     1     1     1     1     1
          1     1     1     1     1     1     1     1     1     1     1     1     1     1     1     1     1     1     1     1
          1     1     1     1     1     1     1     1     1     1     1     1     1     1     1     1     1     1     1     1
          1     1     1     1     1     1     1     1     1     1     1     1     1     1     1     1     1     1     1     1
          1     1     1     1     1     1     1     1     1     1     1     1     1     1     1     1     1     1     1     1
          1     1     1     1     1     1
  83      0     0     0     0     0     0     0     0     0     0     0     0     0     0     0     1     1     1     1     1
          1     1     1     1     1     1     1     1     1     1     1     1     1     1     1     1     1     1     1     1
          1     1     1     1     1     1     1     1     1     1     1     1     1     1     1     1     1     1     1     1
          1     1     1     1     1     1     1     1     1     1     1     1     1     1     1     1     1     1     1     1
          1     1     1     1     1     1     1     1     1     1     1     1     1     1     1     1     1     1     1     1
          1     1     1     1     1     1     1     1     1     1     1     1     1     1     1     1     1     1     1     1
          1     1     1     1     1     1     1     1     1     1     1     1     1     1     1     1     1     1     1     1
          1     1     1     1     1     1     1     1     1     1     1     1     1     1     1     1     1     1     1     1
          1     1     1     1     1     1     1     1     1     1     1     1     1     1     1     1     1     1     1     1
          1     1     1     1     1     1
  84      0     0     0     0     0     0     0     0     0     0     0     0     0     0     0     1     1     1     1     1
          1     1     1     1     1     1     1     1     1     1     1     1     1     1     1     1     1     1     1     1
          1     1     1     1     1     1     1     1     1     1     1     1     1     1     1     1     1     1     1     1
          1     1     1     1     1     1     1     1     1     1     1     1     1     1     1     1     1     1     1     1
          1     1     1     1     1     1     1     1     1     1     1     1     1     1     1     1     1     1     1     1
          1     1     1     1     1     1     1     1     1     1     1     1     1     1     1     1     1     1     1     1
          1     1     1     1     1     1     1     1     1     1     1     1     1     1     1     1     1     1     1     1
          1     1     1     1     1     1     1     1     1     1     1     1     1     1     1     1     1     1     1     1
          1     1     1     1     1     1     1     1     1     1     1     1     1     1     1     1     1     1     1     1
          1     1     1     1     1     1
  85      0     0     0     0     0     0     0     0     0     0     0     0     0     0     0     1     1     1     1     1
          1     1     1     1     1     1     1     1     1     1     1     1     1     1     1     1     1     1     1     1
          1     1     1     1     1     1     1     1     1     1     1     1     1     1     1     1     1     1     1     1
          1     1     1     1     1     1     1     1     1     1     1     1     1     1     1     1     1     1     1     1
          1     1     1     1     1     1     1     1     1     1     1     1     1     1     1     1     1     1     1     1
          1     1     1     1     1     1     1     1     1     1     1     1     1     1     1     1     1     1     1     1
          1     1     1     1     1     1     1     1     1     1     1     1     1     1     1     1     1     1     1     1
          1     1     1     1     1     1     1     1     1     1     1     1     1     1     1     1     1     1     1     1
          1     1     1     1     1     1     1     1     1     1     1     1     1     1     1     1     1     1     1     1
          1     1     1     1     1     1
  86      0     0     0     0     0     0     0     0     0     0     0     0     0     0     0     1     1     1     1     1
          1     1     1     1     1     1     1     1     1     1     1     1     1     1     1     1     1     1     1     1
          1     1     1     1     1     1     1     1     1     1     1     1     1     1     1     1     1     1     1     1
          1     1     1     1     1     1     1     1     1     1     1     1     1     1     1     1     1     1     1     1
          1     1     1     1     1     1     1     1     1     1     1     1     1     1     1     1     1     1     1     1
          1     1     1     1     1     1     1     1     1     1     1     1     1     1     1     1     1     1     1     1
          1     1     1     1     1     1     1     1     1     1     1     1     1     1     1     1     1     1     1     1
          1     1     1     1     1     1     1     1     1     1     1     1     1     1     1     1     1     1     1     1
          1     1     1     1     1     1     1     1     1     1     1     1     1     1     1     1     1     1     1     1
          1     1     1     1     1     1
  87      0     0     0     0     0     0     0     0     0     0     0     0     0     0     0     1     1     1     1     1
          1     1     1     1     1     1     1     1     1     1     1     1     1     1     1     1     1     1     1     1
          1     1     1     1     1     1     1     1     1     1     1     1     1     1     1     1     1     1     1     1
          1     1     1     1     1     1     1     1     1     1     1     1     1     1     1     1     1     1     1     1
          1     1     1     1     1     1     1     1     1     1     1     1     1     1     1     1     1     1     1     1
          1     1     1     1     1     1     1     1     1     1     1     1     1     1     1     1     1     1     1     1
          1     1     1     1     1     1     1     1     1     1     1     1     1     1     1     1     1     1     1     1
          1     1     1     1     1     1     1     1     1     1     1     1     1     1     1     1     1     1     1     1
          1     1     1     1     1     1     1     1     1     1     1     1     1     1     1     1     1     1     1     1
          1     1     1     1     1     1
  88      0     0     0     0     0     0     0     0     0     0     0     0     0     0     0     1     1     1     1     1
          1     1     1     1     1     1     1     1     1     1     1     1     1     1     1     1     1     1     1     1
          1     1     1     1     1     1     1     1     1     1     1     1     1     1     1     1     1     1     1     1
          1     1     1     1     1     1     1     1     1     1     1     1     1     1     1     1     1     1     1     1
          1     1     1     1     1     1     1     1     1     1     1     1     1     1     1     1     1     1     1     1
          1     1     1     1     1     1     1     1     1     1     1     1     1     1     1     1     1     1     1     1
          1     1     1     1     1     1     1     1     1     1     1     1     1     1     1     1     1     1     1     1
          1     1     1     1     1     1     1     1     1     1     1     1     1     1     1     1     1     1     1     1
          1     1     1     1     1     1     1     1     1     1     1     1     1     1     1     1     1     1     1     1
          1     1     1     1     1     1
  89      0     0     0     0     0     0     0     0     0     0     0     0     0     0     0     1     1     1     1     1
          1     1     1     1     1     1     1     1     1     1     1     1     1     1     1     1     1     1     1     1
          1     1     1     1     1     1     1     1     1     1     1     1     1     1     1     1     1     1     1     1
          1     1     1     1     1     1     1     1     1     1     1     1     1     1     1     1     1     1     1     1
          1     1     1     1     1     1     1     1     1     1     1     1     1     1     1     1     1     1     1     1
          1     1     1     1     1     1     1     1     1     1     1     1     1     1     1     1     1     1     1     1
          1     1     1     1     1     1     1     1     1     1     1     1     1     1     1     1     1     1     1     1
          1     1     1     1     1     1     1     1     1     1     1     1     1     1     1     1     1     1     1     1
          1     1     1     1     1     1     1     1     1     1     1     1     1     1     1     1     1     1     1     1
          1     1     1     1     1     1



                     BOUNDARY ARRAY FOR LAYER   3
 READING ON UNIT   13 WITH FORMAT: (FREE)              

          1     2     3     4     5     6     7     8     9    10    11    12    13    14    15    16    17    18    19    20
         21    22    23    24    25    26    27    28    29    30    31    32    33    34    35    36    37    38    39    40
         41    42    43    44    45    46    47    48    49    50    51    52    53    54    55    56    57    58    59    60
         61    62    63    64    65    66    67    68    69    70    71    72    73    74    75    76    77    78    79    80
         81    82    83    84    85    86    87    88    89    90    91    92    93    94    95    96    97    98    99   100
        101   102   103   104   105   106   107   108   109   110   111   112   113   114   115   116   117   118   119   120
        121   122   123   124   125   126   127   128   129   130   131   132   133   134   135   136   137   138   139   140
        141   142   143   144   145   146   147   148   149   150   151   152   153   154   155   156   157   158   159   160
        161   162   163   164   165   166   167   168   169   170   171   172   173   174   175   176   177   178   179   180
        181   182   183   184   185   186
 ............................................................................................................................
   1      0     0     0     1     1     1     1     1     1     1     1     1     1     1     1     1     1     1     1     1
          1     1     1     1     1     1     1     1     1     1     1     1     1     1     1     1     1     1     1     1
          1     1     1     1     1     1     1     1     1     1     1     1     1     1     1     1     1     1     1     1
          1     1     1     1     1     1     1     1     1     1     1     1     1     1     1     1     1     1     1     1
          1     1     1     1     1     1     1     1     1     1     1     1     1     1     1     1     1     1     1     1
          1     1     1     1     1     1     1     1     1     1     1     1     1     1     1     1     1     1     1     1
          1     1     1     1     1     1     1     1     1     1     1     1     1     1     1     1     1     1     1     1
          1     1     1     1     1     1     1     1     1     1     1     1     1     1     1     1     1     1     1     1
          1     1     1     1     1     1     1     1     1     1     1     1     1     1     1     1     1     1     1     1
          1     1     1     1     1     1
   2      0     0     0     1     1     1     1     1     1     1     1     1     1     1     1     1     1     1     1     1
          1     1     1     1     1     1     1     1     1     1     1     1     1     1     1     1     1     1     1     1
          1     1     1     1     1     1     1     1     1     1     1     1     1     1     1     1     1     1     1     1
          1     1     1     1     1     1     1     1     1     1     1     1     1     1     1     1     1     1     1     1
          1     1     1     1     1     1     1     1     1     1     1     1     1     1     1     1     1     1     1     1
          1     1     1     1     1     1     1     1     1     1     1     1     1     1     1     1     1     1     1     1
          1     1     1     1     1     1     1     1     1     1     1     1     1     1     1     1     1     1     1     1
          1     1     1     1     1     1     1     1     1     1     1     1     1     1     1     1     1     1     1     1
          1     1     1     1     1     1     1     1     1     1     1     1     1     1     1     1     1     1     1     1
          1     1     1     1     1     1
   3      0     0     0     0     1     1     1     1     1     1     1     1     1     1     1     1     1     1     1     1
          1     1     1     1     1     1     1     1     1     1     1     1     1     1     1     1     1     1     1     1
          1     1     1     1     1     1     1     1     1     1     1     1     1     1     1     1     1     1     1     1
          1     1     1     1     1     1     1     1     1     1     1     1     1     1     1     1     1     1     1     1
          1     1     1     1     1     1     1     1     1     1     1     1     1     1     1     1     1     1     1     1
          1     1     1     1     1     1     1     1     1     1     1     1     1     1     1     1     1     1     1     1
          1     1     1     1     1     1     1     1     1     1     1     1     1     1     1     1     1     1     1     1
          1     1     1     1     1     1     1     1     1     1     1     1     1     1     1     1     1     1     1     1
          1     1     1     1     1     1     1     1     1     1     1     1     1     1     1     1     1     1     1     1
          1     1     1     1     1     1
   4      0     0     0     0     1     1     1     1     1     1     1     1     1     1     1     1     1     1     1     1
          1     1     1     1     1     1     1     1     1     1     1     1     1     1     1     1     1     1     1     1
          1     1     1     1     1     1     1     1     1     1     1     1     1     1     1     1     1     1     1     1
          1     1     1     1     1     1     1     1     1     1     1     1     1     1     1     1     1     1     1     1
          1     1     1     1     1     1     1     1     1     1     1     1     1     1     1     1     1     1     1     1
          1     1     1     1     1     1     1     1     1     1     1     1     1     1     1     1     1     1     1     1
          1     1     1     1     1     1     1     1     1     1     1     1     1     1     1     1     1     1     1     1
          1     1     1     1     1     1     1     1     1     1     1     1     1     1     1     1     1     1     1     1
          1     1     1     1     1     1     1     1     1     1     1     1     1     1     1     1     1     1     1     1
          1     1     1     1     1     1
   5      0     0     0     0     1     1     1     1     1     1     1     1     1     1     1     1     1     1     1     1
          1     1     1     1     1     1     1     1     1     1     1     1     1     1     1     1     1     1     1     1
          1     1     1     1     1     1     1     1     1     1     1     1     1     1     1     1     1     1     1     1
          1     1     1     1     1     1     1     1     1     1     1     1     1     1     1     1     1     1     1     1
          1     1     1     1     1     1     1     1     1     1     1     1     1     1     1     1     1     1     1     1
          1     1     1     1     1     1     1     1     1     1     1     1     1     1     1     1     1     1     1     1
          1     1     1     1     1     1     1     1     1     1     1     1     1     1     1     1     1     1     1     1
          1     1     1     1     1     1     1     1     1     1     1     1     1     1     1     1     1     1     1     1
          1     1     1     1     1     1     1     1     1     1     1     1     1     1     1     1     1     1     1     1
          1     1     1     1     1     1
   6      0     0     0     0     1     1     1     1     1     1     1     1     1     1     1     1     1     1     1     1
          1     1     1     1     1     1     1     1     1     1     1     1     1     1     1     1     1     1     1     1
          1     1     1     1     1     1     1     1     1     1     1     1     1     1     1     1     1     1     1     1
          1     1     1     1     1     1     1     1     1     1     1     1     1     1     1     1     1     1     1     1
          1     1     1     1     1     1     1     1     1     1     1     1     1     1     1     1     1     1     1     1
          1     1     1     1     1     1     1     1     1     1     1     1     1     1     1     1     1     1     1     1
          1     1     1     1     1     1     1     1     1     1     1     1     1     1     1     1     1     1     1     1
          1     1     1     1     1     1     1     1     1     1     1     1     1     1     1     1     1     1     1     1
          1     1     1     1     1     1     1     1     1     1     1     1     1     1     1     1     1     1     1     1
          1     1     1     1     1     1
   7      0     0     0     0     0     1     1     1     1     1     1     1     1     1     1     1     1     1     1     1
          1     1     1     1     1     1     1     1     1     1     1     1     1     1     1     1     1     1     1     1
          1     1     1     1     1     1     1     1     1     1     1     1     1     1     1     1     1     1     1     1
          1     1     1     1     1     1     1     1     1     1     1     1     1     1     1     1     1     1     1     1
          1     1     1     1     1     1     1     1     1     1     1     1     1     1     1     1     1     1     1     1
          1     1     1     1     1     1     1     1     1     1     1     1     1     1     1     1     1     1     1     1
          1     1     1     1     1     1     1     1     1     1     1     1     1     1     1     1     1     1     1     1
          1     1     1     1     1     1     1     1     1     1     1     1     1     1     1     1     1     1     1     1
          1     1     1     1     1     1     1     1     1     1     1     1     1     1     1     1     1     1     1     1
          1     1     1     1     1     1
   8      0     0     0     0     0     1     1     1     1     1     1     1     1     1     1     1     1     1     1     1
          1     1     1     1     1     1     1     1     1     1     1     1     1     1     1     1     1     1     1     1
          1     1     1     1     1     1     1     1     1     1     1     1     1     1     1     1     1     1     1     1
          1     1     1     1     1     1     1     1     1     1     1     1     1     1     1     1     1     1     1     1
          1     1     1     1     1     1     1     1     1     1     1     1     1     1     1     1     1     1     1     1
          1     1     1     1     1     1     1     1     1     1     1     1     1     1     1     1     1     1     1     1
          1     1     1     1     1     1     1     1     1     1     1     1     1     1     1     1     1     1     1     1
          1     1     1     1     1     1     1     1     1     1     1     1     1     1     1     1     1     1     1     1
          1     1     1     1     1     1     1     1     1     1     1     1     1     1     1     1     1     1     1     1
          1     1     1     1     1     1
   9      0     0     0     0     0     1     1     1     1     1     1     1     1     1     1     1     1     1     1     1
          1     1     1     1     1     1     1     1     1     1     1     1     1     1     1     1     1     1     1     1
          1     1     1     1     1     1     1     1     1     1     1     1     1     1     1     1     1     1     1     1
          1     1     1     1     1     1     1     1     1     1     1     1     1     1     1     1     1     1     1     1
          1     1     1     1     1     1     1     1     1     1     1     1     1     1     1     1     1     1     1     1
          1     1     1     1     1     1     1     1     1     1     1     1     1     1     1     1     1     1     1     1
          1     1     1     1     1     1     1     1     1     1     1     1     1     1     1     1     1     1     1     1
          1     1     1     1     1     1     1     1     1     1     1     1     1     1     1     1     1     1     1     1
          1     1     1     1     1     1     1     1     1     1     1     1     1     1     1     1     1     1     1     1
          1     1     1     1     1     1
  10      0     0     0     0     0     0     1     1     1     1     1     1     1     1     1     1     1     1     1     1
          1     1     1     1     1     1     1     1     1     1     1     1     1     1     1     1     1     1     1     1
          1     1     1     1     1     1     1     1     1     1     1     1     1     1     1     1     1     1     1     1
          1     1     1     1     1     1     1     1     1     1     1     1     1     1     1     1     1     1     1     1
          1     1     1     1     1     1     1     1     1     1     1     1     1     1     1     1     1     1     1     1
          1     1     1     1     1     1     1     1     1     1     1     1     1     1     1     1     1     1     1     1
          1     1     1     1     1     1     1     1     1     1     1     1     1     1     1     1     1     1     1     1
          1     1     1     1     1     1     1     1     1     1     1     1     1     1     1     1     1     1     1     1
          1     1     1     1     1     1     1     1     1     1     1     1     1     1     1     1     1     1     1     1
          1     1     1     1     1     1
  11      0     0     0     0     0     0     1     1     1     1     1     1     1     1     1     1     1     1     1     1
          1     1     1     1     1     1     1     1     1     1     1     1     1     1     1     1     1     1     1     1
          1     1     1     1     1     1     1     1     1     1     1     1     1     1     1     1     1     1     1     1
          1     1     1     1     1     1     1     1     1     1     1     1     1     1     1     1     1     1     1     1
          1     1     1     1     1     1     1     1     1     1     1     1     1     1     1     1     1     1     1     1
          1     1     1     1     1     1     1     1     1     1     1     1     1     1     1     1     1     1     1     1
          1     1     1     1     1     1     1     1     1     1     1     1     1     1     1     1     1     1     1     1
          1     1     1     1     1     1     1     1     1     1     1     1     1     1     1     1     1     1     1     1
          1     1     1     1     1     1     1     1     1     1     1     1     1     1     1     1     1     1     1     1
          1     1     1     1     1     1
  12      0     0     0     0     0     0     1     1     1     1     1     1     1     1     1     1     1     1     1     1
          1     1     1     1     1     1     1     1     1     1     1     1     1     1     1     1     1     1     1     1
          1     1     1     1     1     1     1     1     1     1     1     1     1     1     1     1     1     1     1     1
          1     1     1     1     1     1     1     1     1     1     1     1     1     1     1     1     1     1     1     1
          1     1     1     1     1     1     1     1     1     1     1     1     1     1     1     1     1     1     1     1
          1     1     1     1     1     1     1     1     1     1     1     1     1     1     1     1     1     1     1     1
          1     1     1     1     1     1     1     1     1     1     1     1     1     1     1     1     1     1     1     1
          1     1     1     1     1     1     1     1     1     1     1     1     1     1     1     1     1     1     1     1
          1     1     1     1     1     1     1     1     1     1     1     1     1     1     1     1     1     1     1     1
          1     1     1     1     1     1
  13      0     0     0     0     0     0     1     1     1     1     1     1     1     1     1     1     1     1     1     1
          1     1     1     1     1     1     1     1     1     1     1     1     1     1     1     1     1     1     1     1
          1     1     1     1     1     1     1     1     1     1     1     1     1     1     1     1     1     1     1     1
          1     1     1     1     1     1     1     1     1     1     1     1     1     1     1     1     1     1     1     1
          1     1     1     1     1     1     1     1     1     1     1     1     1     1     1     1     1     1     1     1
          1     1     1     1     1     1     1     1     1     1     1     1     1     1     1     1     1     1     1     1
          1     1     1     1     1     1     1     1     1     1     1     1     1     1     1     1     1     1     1     1
          1     1     1     1     1     1     1     1     1     1     1     1     1     1     1     1     1     1     1     1
          1     1     1     1     1     1     1     1     1     1     1     1     1     1     1     1     1     1     1     1
          1     1     1     1     1     1
  14      0     0     0     0     0     0     1     1     1     1     1     1     1     1     1     1     1     1     1     1
          1     1     1     1     1     1     1     1     1     1     1     1     1     1     1     1     1     1     1     1
          1     1     1     1     1     1     1     1     1     1     1     1     1     1     1     1     1     1     1     1
          1     1     1     1     1     1     1     1     1     1     1     1     1     1     1     1     1     1     1     1
          1     1     1     1     1     1     1     1     1     1     1     1     1     1     1     1     1     1     1     1
          1     1     1     1     1     1     1     1     1     1     1     1     1     1     1     1     1     1     1     1
          1     1     1     1     1     1     1     1     1     1     1     1     1     1     1     1     1     1     1     1
          1     1     1     1     1     1     1     1     1     1     1     1     1     1     1     1     1     1     1     1
          1     1     1     1     1     1     1     1     1     1     1     1     1     1     1     1     1     1     1     1
          1     1     1     1     1     1
  15      0     0     0     0     0     0     1     1     1     1     1     1     1     1     1     1     1     1     1     1
          1     1     1     1     1     1     1     1     1     1     1     1     1     1     1     1     1     1     1     1
          1     1     1     1     1     1     1     1     1     1     1     1     1     1     1     1     1     1     1     1
          1     1     1     1     1     1     1     1     1     1     1     1     1     1     1     1     1     1     1     1
          1     1     1     1     1     1     1     1     1     1     1     1     1     1     1     1     1     1     1     1
          1     1     1     1     1     1     1     1     1     1     1     1     1     1     1     1     1     1     1     1
          1     1     1     1     1     1     1     1     1     1     1     1     1     1     1     1     1     1     1     1
          1     1     1     1     1     1     1     1     1     1     1     1     1     1     1     1     1     1     1     1
          1     1     1     1     1     1     1     1     1     1     1     1     1     1     1     1     1     1     1     1
          1     1     1     1     1     1
  16      0     0     0     0     0     0     1     1     1     1     1     1     1     1     1     1     1     1     1     1
          1     1     1     1     1     1     1     1     1     1     1     1     1     1     1     1     1     1     1     1
          1     1     1     1     1     1     1     1     1     1     1     1     1     1     1     1     1     1     1     1
          1     1     1     1     1     1     1     1     1     1     1     1     1     1     1     1     1     1     1     1
          1     1     1     1     1     1     1     1     1     1     1     1     1     1     1     1     1     1     1     1
          1     1     1     1     1     1     1     1     1     1     1     1     1     1     1     1     1     1     1     1
          1     1     1     1     1     1     1     1     1     1     1     1     1     1     1     1     1     1     1     1
          1     1     1     1     1     1     1     1     1     1     1     1     1     1     1     1     1     1     1     1
          1     1     1     1     1     1     1     1     1     1     1     1     1     1     1     1     1     1     1     1
          1     1     1     1     1     1
  17      0     0     0     0     0     0     0     1     1     1     1     1     1     1     1     1     1     1     1     1
          1     1     1     1     1     1     1     1     1     1     1     1     1     1     1     1     1     1     1     1
          1     1     1     1     1     1     1     1     1     1     1     1     1     1     1     1     1     1     1     1
          1     1     1     1     1     1     1     1     1     1     1     1     1     1     1     1     1     1     1     1
          1     1     1     1     1     1     1     1     1     1     1     1     1     1     1     1     1     1     1     1
          1     1     1     1     1     1     1     1     1     1     1     1     1     1     1     1     1     1     1     1
          1     1     1     1     1     1     1     1     1     1     1     1     1     1     1     1     1     1     1     1
          1     1     1     1     1     1     1     1     1     1     1     1     1     1     1     1     1     1     1     1
          1     1     1     1     1     1     1     1     1     1     1     1     1     1     1     1     1     1     1     1
          1     1     1     1     1     1
  18      0     0     0     0     0     0     0     1     1     1     1     1     1     1     1     1     1     1     1     1
          1     1     1     1     1     1     1     1     1     1     1     1     1     1     1     1     1     1     1     1
          1     1     1     1     1     1     1     1     1     1     1     1     1     1     1     1     1     1     1     1
          1     1     1     1     1     1     1     1     1     1     1     1     1     1     1     1     1     1     1     1
          1     1     1     1     1     1     1     1     1     1     1     1     1     1     1     1     1     1     1     1
          1     1     1     1     1     1     1     1     1     1     1     1     1     1     1     1     1     1     1     1
          1     1     1     1     1     1     1     1     1     1     1     1     1     1     1     1     1     1     1     1
          1     1     1     1     1     1     1     1     1     1     1     1     1     1     1     1     1     1     1     1
          1     1     1     1     1     1     1     1     1     1     1     1     1     1     1     1     1     1     1     1
          1     1     1     1     1     1
  19      0     0     0     0     0     0     0     1     1     1     1     1     1     1     1     1     1     1     1     1
          1     1     1     1     1     1     1     1     1     1     1     1     1     1     1     1     1     1     1     1
          1     1     1     1     1     1     1     1     1     1     1     1     1     1     1     1     1     1     1     1
          1     1     1     1     1     1     1     1     1     1     1     1     1     1     1     1     1     1     1     1
          1     1     1     1     1     1     1     1     1     1     1     1     1     1     1     1     1     1     1     1
          1     1     1     1     1     1     1     1     1     1     1     1     1     1     1     1     1     1     1     1
          1     1     1     1     1     1     1     1     1     1     1     1     1     1     1     1     1     1     1     1
          1     1     1     1     1     1     1     1     1     1     1     1     1     1     1     1     1     1     1     1
          1     1     1     1     1     1     1     1     1     1     1     1     1     1     1     1     1     1     1     1
          1     1     1     1     1     1
  20      0     0     0     0     0     0     0     1     1     1     1     1     1     1     1     1     1     1     1     1
          1     1     1     1     1     1     1     1     1     1     1     1     1     1     1     1     1     1     1     1
          1     1     1     1     1     1     1     1     1     1     1     1     1     1     1     1     1     1     1     1
          1     1     1     1     1     1     1     1     1     1     1     1     1     1     1     1     1     1     1     1
          1     1     1     1     1     1     1     1     1     1     1     1     1     1     1     1     1     1     1     1
          1     1     1     1     1     1     1     1     1     1     1     1     1     1     1     1     1     1     1     1
          1     1     1     1     1     1     1     1     1     1     1     1     1     1     1     1     1     1     1     1
          1     1     1     1     1     1     1     1     1     1     1     1     1     1     1     1     1     1     1     1
          1     1     1     1     1     1     1     1     1     1     1     1     1     1     1     1     1     1     1     1
          1     1     1     1     1     1
  21      0     0     0     0     0     0     0     1     1     1     1     1     1     1     1     1     1     1     1     1
          1     1     1     1     1     1     1     1     1     1     1     1     1     1     1     1     1     1     1     1
          1     1     1     1     1     1     1     1     1     1     1     1     1     1     1     1     1     1     1     1
          1     1     1     1     1     1     1     1     1     1     1     1     1     1     1     1     1     1     1     1
          1     1     1     1     1     1     1     1     1     1     1     1     1     1     1     1     1     1     1     1
          1     1     1     1     1     1     1     1     1     1     1     1     1     1     1     1     1     1     1     1
          1     1     1     1     1     1     1     1     1     1     1     1     1     1     1     1     1     1     1     1
          1     1     1     1     1     1     1     1     1     1     1     1     1     1     1     1     1     1     1     1
          1     1     1     1     1     1     1     1     1     1     1     1     1     1     1     1     1     1     1     1
          1     1     1     1     1     1
  22      0     0     0     0     0     0     0     1     1     1     1     1     1     1     1     1     1     1     1     1
          1     1     1     1     1     1     1     1     1     1     1     1     1     1     1     1     1     1     1     1
          1     1     1     1     1     1     1     1     1     1     1     1     1     1     1     1     1     1     1     1
          1     1     1     1     1     1     1     1     1     1     1     1     1     1     1     1     1     1     1     1
          1     1     1     1     1     1     1     1     1     1     1     1     1     1     1     1     1     1     1     1
          1     1     1     1     1     1     1     1     1     1     1     1     1     1     1     1     1     1     1     1
          1     1     1     1     1     1     1     1     1     1     1     1     1     1     1     1     1     1     1     1
          1     1     1     1     1     1     1     1     1     1     1     1     1     1     1     1     1     1     1     1
          1     1     1     1     1     1     1     1     1     1     1     1     1     1     1     1     1     1     1     1
          1     1     1     1     1     1
  23      0     0     0     0     0     0     0     1     1     1     1     1     1     1     1     1     1     1     1     1
          1     1     1     1     1     1     1     1     1     1     1     1     1     1     1     1     1     1     1     1
          1     1     1     1     1     1     1     1     1     1     1     1     1     1     1     1     1     1     1     1
          1     1     1     1     1     1     1     1     1     1     1     1     1     1     1     1     1     1     1     1
          1     1     1     1     1     1     1     1     1     1     1     1     1     1     1     1     1     1     1     1
          1     1     1     1     1     1     1     1     1     1     1     1     1     1     1     1     1     1     1     1
          1     1     1     1     1     1     1     1     1     1     1     1     1     1     1     1     1     1     1     1
          1     1     1     1     1     1     1     1     1     1     1     1     1     1     1     1     1     1     1     1
          1     1     1     1     1     1     1     1     1     1     1     1     1     1     1     1     1     1     1     1
          1     1     1     1     1     1
  24      0     0     0     0     0     0     0     1     1     1     1     1     1     1     1     1     1     1     1     1
          1     1     1     1     1     1     1     1     1     1     1     1     1     1     1     1     1     1     1     1
          1     1     1     1     1     1     1     1     1     1     1     1     1     1     1     1     1     1     1     1
          1     1     1     1     1     1     1     1     1     1     1     1     1     1     1     1     1     1     1     1
          1     1     1     1     1     1     1     1     1     1     1     1     1     1     1     1     1     1     1     1
          1     1     1     1     1     1     1     1     1     1     1     1     1     1     1     1     1     1     1     1
          1     1     1     1     1     1     1     1     1     1     1     1     1     1     1     1     1     1     1     1
          1     1     1     1     1     1     1     1     1     1     1     1     1     1     1     1     1     1     1     1
          1     1     1     1     1     1     1     1     1     1     1     1     1     1     1     1     1     1     1     1
          1     1     1     1     1     1
  25      0     0     0     0     0     0     0     0     1     1     1     1     1     1     1     1     1     1     1     1
          1     1     1     1     1     1     1     1     1     1     1     1     1     1     1     1     1     1     1     1
          1     1     1     1     1     1     1     1     1     1     1     1     1     1     1     1     1     1     1     1
          1     1     1     1     1     1     1     1     1     1     1     1     1     1     1     1     1     1     1     1
          1     1     1     1     1     1     1     1     1     1     1     1     1     1     1     1     1     1     1     1
          1     1     1     1     1     1     1     1     1     1     1     1     1     1     1     1     1     1     1     1
          1     1     1     1     1     1     1     1     1     1     1     1     1     1     1     1     1     1     1     1
          1     1     1     1     1     1     1     1     1     1     1     1     1     1     1     1     1     1     1     1
          1     1     1     1     1     1     1     1     1     1     1     1     1     1     1     1     1     1     1     1
          1     1     1     1     1     1
  26      0     0     0     0     0     0     0     0     1     1     1     1     1     1     1     1     1     1     1     1
          1     1     1     1     1     1     1     1     1     1     1     1     1     1     1     1     1     1     1     1
          1     1     1     1     1     1     1     1     1     1     1     1     1     1     1     1     1     1     1     1
          1     1     1     1     1     1     1     1     1     1     1     1     1     1     1     1     1     1     1     1
          1     1     1     1     1     1     1     1     1     1     1     1     1     1     1     1     1     1     1     1
          1     1     1     1     1     1     1     1     1     1     1     1     1     1     1     1     1     1     1     1
          1     1     1     1     1     1     1     1     1     1     1     1     1     1     1     1     1     1     1     1
          1     1     1     1     1     1     1     1     1     1     1     1     1     1     1     1     1     1     1     1
          1     1     1     1     1     1     1     1     1     1     1     1     1     1     1     1     1     1     1     1
          1     1     1     1     1     1
  27      0     0     0     0     0     0     0     0     1     1     1     1     1     1     1     1     1     1     1     1
          1     1     1     1     1     1     1     1     1     1     1     1     1     1     1     1     1     1     1     1
          1     1     1     1     1     1     1     1     1     1     1     1     1     1     1     1     1     1     1     1
          1     1     1     1     1     1     1     1     1     1     1     1     1     1     1     1     1     1     1     1
          1     1     1     1     1     1     1     1     1     1     1     1     1     1     1     1     1     1     1     1
          1     1     1     1     1     1     1     1     1     1     1     1     1     1     1     1     1     1     1     1
          1     1     1     1     1     1     1     1     1     1     1     1     1     1     1     1     1     1     1     1
          1     1     1     1     1     1     1     1     1     1     1     1     1     1     1     1     1     1     1     1
          1     1     1     1     1     1     1     1     1     1     1     1     1     1     1     1     1     1     1     1
          1     1     1     1     1     1
  28      0     0     0     0     0     0     0     0     1     1     1     1     1     1     1     1     1     1     1     1
          1     1     1     1     1     1     1     1     1     1     1     1     1     1     1     1     1     1     1     1
          1     1     1     1     1     1     1     1     1     1     1     1     1     1     1     1     1     1     1     1
          1     1     1     1     1     1     1     1     1     1     1     1     1     1     1     1     1     1     1     1
          1     1     1     1     1     1     1     1     1     1     1     1     1     1     1     1     1     1     1     1
          1     1     1     1     1     1     1     1     1     1     1     1     1     1     1     1     1     1     1     1
          1     1     1     1     1     1     1     1     1     1     1     1     1     1     1     1     1     1     1     1
          1     1     1     1     1     1     1     1     1     1     1     1     1     1     1     1     1     1     1     1
          1     1     1     1     1     1     1     1     1     1     1     1     1     1     1     1     1     1     1     1
          1     1     1     1     1     1
  29      0     0     0     0     0     0     0     0     1     1     1     1     1     1     1     1     1     1     1     1
          1     1     1     1     1     1     1     1     1     1     1     1     1     1     1     1     1     1     1     1
          1     1     1     1     1     1     1     1     1     1     1     1     1     1     1     1     1     1     1     1
          1     1     1     1     1     1     1     1     1     1     1     1     1     1     1     1     1     1     1     1
          1     1     1     1     1     1     1     1     1     1     1     1     1     1     1     1     1     1     1     1
          1     1     1     1     1     1     1     1     1     1     1     1     1     1     1     1     1     1     1     1
          1     1     1     1     1     1     1     1     1     1     1     1     1     1     1     1     1     1     1     1
          1     1     1     1     1     1     1     1     1     1     1     1     1     1     1     1     1     1     1     1
          1     1     1     1     1     1     1     1     1     1     1     1     1     1     1     1     1     1     1     1
          1     1     1     1     1     1
  30      0     0     0     0     0     0     0     0     1     1     1     1     1     1     1     1     1     1     1     1
          1     1     1     1     1     1     1     1     1     1     1     1     1     1     1     1     1     1     1     1
          1     1     1     1     1     1     1     1     1     1     1     1     1     1     1     1     1     1     1     1
          1     1     1     1     1     1     1     1     1     1     1     1     1     1     1     1     1     1     1     1
          1     1     1     1     1     1     1     1     1     1     1     1     1     1     1     1     1     1     1     1
          1     1     1     1     1     1     1     1     1     1     1     1     1     1     1     1     1     1     1     1
          1     1     1     1     1     1     1     1     1     1     1     1     1     1     1     1     1     1     1     1
          1     1     1     1     1     1     1     1     1     1     1     1     1     1     1     1     1     1     1     1
          1     1     1     1     1     1     1     1     1     1     1     1     1     1     1     1     1     1     1     1
          1     1     1     1     1     1
  31      0     0     0     0     0     0     0     0     0     1     1     1     1     1     1     1     1     1     1     1
          1     1     1     1     1     1     1     1     1     1     1     1     1     1     1     1     1     1     1     1
          1     1     1     1     1     1     1     1     1     1     1     1     1     1     1     1     1     1     1     1
          1     1     1     1     1     1     1     1     1     1     1     1     1     1     1     1     1     1     1     1
          1     1     1     1     1     1     1     1     1     1     1     1     1     1     1     1     1     1     1     1
          1     1     1     1     1     1     1     1     1     1     1     1     1     1     1     1     1     1     1     1
          1     1     1     1     1     1     1     1     1     1     1     1     1     1     1     1     1     1     1     1
          1     1     1     1     1     1     1     1     1     1     1     1     1     1     1     1     1     1     1     1
          1     1     1     1     1     1     1     1     1     1     1     1     1     1     1     1     1     1     1     1
          1     1     1     1     1     1
  32      0     0     0     0     0     0     0     0     0     1     1     1     1     1     1     1     1     1     1     1
          1     1     1     1     1     1     1     1     1     1     1     1     1     1     1     1     1     1     1     1
          1     1     1     1     1     1     1     1     1     1     1     1     1     1     1     1     1     1     1     1
          1     1     1     1     1     1     1     1     1     1     1     1     1     1     1     1     1     1     1     1
          1     1     1     1     1     1     1     1     1     1     1     1     1     1     1     1     1     1     1     1
          1     1     1     1     1     1     1     1     1     1     1     1     1     1     1     1     1     1     1     1
          1     1     1     1     1     1     1     1     1     1     1     1     1     1     1     1     1     1     1     1
          1     1     1     1     1     1     1     1     1     1     1     1     1     1     1     1     1     1     1     1
          1     1     1     1     1     1     1     1     1     1     1     1     1     1     1     1     1     1     1     1
          1     1     1     1     1     1
  33      0     0     0     0     0     0     0     0     0     1     1     1     1     1     1     1     1     1     1     1
          1     1     1     1     1     1     1     1     1     1     1     1     1     1     1     1     1     1     1     1
          1     1     1     1     1     1     1     1     1     1     1     1     1     1     1     1     1     1     1     1
          1     1     1     1     1     1     1     1     1     1     1     1     1     1     1     1     1     1     1     1
          1     1     1     1     1     1     1     1     1     1     1     1     1     1     1     1     1     1     1     1
          1     1     1     1     1     1     1     1     1     1     1     1     1     1     1     1     1     1     1     1
          1     1     1     1     1     1     1     1     1     1     1     1     1     1     1     1     1     1     1     1
          1     1     1     1     1     1     1     1     1     1     1     1     1     1     1     1     1     1     1     1
          1     1     1     1     1     1     1     1     1     1     1     1     1     1     1     1     1     1     1     1
          1     1     1     1     1     1
  34      0     0     0     0     0     0     0     0     0     1     1     1     1     1     1     1     1     1     1     1
          1     1     1     1     1     1     1     1     1     1     1     1     1     1     1     1     1     1     1     1
          1     1     1     1     1     1     1     1     1     1     1     1     1     1     1     1     1     1     1     1
          1     1     1     1     1     1     1     1     1     1     1     1     1     1     1     1     1     1     1     1
          1     1     1     1     1     1     1     1     1     1     1     1     1     1     1     1     1     1     1     1
          1     1     1     1     1     1     1     1     1     1     1     1     1     1     1     1     1     1     1     1
          1     1     1     1     1     1     1     1     1     1     1     1     1     1     1     1     1     1     1     1
          1     1     1     1     1     1     1     1     1     1     1     1     1     1     1     1     1     1     1     1
          1     1     1     1     1     1     1     1     1     1     1     1     1     1     1     1     1     1     1     1
          1     1     1     1     1     1
  35      0     0     0     0     0     0     0     0     0     1     1     1     1     1     1     1     1     1     1     1
          1     1     1     1     1     1     1     1     1     1     1     1     1     1     1     1     1     1     1     1
          1     1     1     1     1     1     1     1     1     1     1     1     1     1     1     1     1     1     1     1
          1     1     1     1     1     1     1     1     1     1     1     1     1     1     1     1     1     1     1     1
          1     1     1     1     1     1     1     1     1     1     1     1     1     1     1     1     1     1     1     1
          1     1     1     1     1     1     1     1     1     1     1     1     1     1     1     1     1     1     1     1
          1     1     1     1     1     1     1     1     1     1     1     1     1     1     1     1     1     1     1     1
          1     1     1     1     1     1     1     1     1     1     1     1     1     1     1     1     1     1     1     1
          1     1     1     1     1     1     1     1     1     1     1     1     1     1     1     1     1     1     1     1
          1     1     1     1     1     1
  36      0     0     0     0     0     0     0     0     0     1     1     1     1     1     1     1     1     1     1     1
          1     1     1     1     1     1     1     1     1     1     1     1     1     1     1     1     1     1     1     1
          1     1     1     1     1     1     1     1     1     1     1     1     1     1     1     1     1     1     1     1
          1     1     1     1     1     1     1     1     1     1     1     1     1     1     1     1     1     1     1     1
          1     1     1     1     1     1     1     1     1     1     1     1     1     1     1     1     1     1     1     1
          1     1     1     1     1     1     1     1     1     1     1     1     1     1     1     1     1     1     1     1
          1     1     1     1     1     1     1     1     1     1     1     1     1     1     1     1     1     1     1     1
          1     1     1     1     1     1     1     1     1     1     1     1     1     1     1     1     1     1     1     1
          1     1     1     1     1     1     1     1     1     1     1     1     1     1     1     1     1     1     1     1
          1     1     1     1     1     1
  37      0     0     0     0     0     0     0     0     0     1     1     1     1     1     1     1     1     1     1     1
          1     1     1     1     1     1     1     1     1     1     1     1     1     1     1     1     1     1     1     1
          1     1     1     1     1     1     1     1     1     1     1     1     1     1     1     1     1     1     1     1
          1     1     1     1     1     1     1     1     1     1     1     1     1     1     1     1     1     1     1     1
          1     1     1     1     1     1     1     1     1     1     1     1     1     1     1     1     1     1     1     1
          1     1     1     1     1     1     1     1     1     1     1     1     1     1     1     1     1     1     1     1
          1     1     1     1     1     1     1     1     1     1     1     1     1     1     1     1     1     1     1     1
          1     1     1     1     1     1     1     1     1     1     1     1     1     1     1     1     1     1     1     1
          1     1     1     1     1     1     1     1     1     1     1     1     1     1     1     1     1     1     1     1
          1     1     1     1     1     1
  38      0     0     0     0     0     0     0     0     0     0     1     1     1     1     1     1     1     1     1     1
          1     1     1     1     1     1     1     1     1     1     1     1     1     1     1     1     1     1     1     1
          1     1     1     1     1     1     1     1     1     1     1     1     1     1     1     1     1     1     1     1
          1     1     1     1     1     1     1     1     1     1     1     1     1     1     1     1     1     1     1     1
          1     1     1     1     1     1     1     1     1     1     1     1     1     1     1     1     1     1     1     1
          1     1     1     1     1     1     1     1     1     1     1     1     1     1     1     1     1     1     1     1
          1     1     1     1     1     1     1     1     1     1     1     1     1     1     1     1     1     1     1     1
          1     1     1     1     1     1     1     1     1     1     1     1     1     1     1     1     1     1     1     1
          1     1     1     1     1     1     1     1     1     1     1     1     1     1     1     1     1     1     1     1
          1     1     1     1     1     1
  39      0     0     0     0     0     0     0     0     0     0     1     1     1     1     1     1     1     1     1     1
          1     1     1     1     1     1     1     1     1     1     1     1     1     1     1     1     1     1     1     1
          1     1     1     1     1     1     1     1     1     1     1     1     1     1     1     1     1     1     1     1
          1     1     1     1     1     1     1     1     1     1     1     1     1     1     1     1     1     1     1     1
          1     1     1     1     1     1     1     1     1     1     1     1     1     1     1     1     1     1     1     1
          1     1     1     1     1     1     1     1     1     1     1     1     1     1     1     1     1     1     1     1
          1     1     1     1     1     1     1     1     1     1     1     1     1     1     1     1     1     1     1     1
          1     1     1     1     1     1     1     1     1     1     1     1     1     1     1     1     1     1     1     1
          1     1     1     1     1     1     1     1     1     1     1     1     1     1     1     1     1     1     1     1
          1     1     1     1     1     1
  40      0     0     0     0     0     0     0     0     0     0     1     1     1     1     1     1     1     1     1     1
          1     1     1     1     1     1     1     1     1     1     1     1     1     1     1     1     1     1     1     1
          1     1     1     1     1     1     1     1     1     1     1     1     1     1     1     1     1     1     1     1
          1     1     1     1     1     1     1     1     1     1     1     1     1     1     1     1     1     1     1     1
          1     1     1     1     1     1     1     1     1     1     1     1     1     1     1     1     1     1     1     1
          1     1     1     1     1     1     1     1     1     1     1     1     1     1     1     1     1     1     1     1
          1     1     1     1     1     1     1     1     1     1     1     1     1     1     1     1     1     1     1     1
          1     1     1     1     1     1     1     1     1     1     1     1     1     1     1     1     1     1     1     1
          1     1     1     1     1     1     1     1     1     1     1     1     1     1     1     1     1     1     1     1
          1     1     1     1     1     1
  41      0     0     0     0     0     0     0     0     0     0     1     1     1     1     1     1     1     1     1     1
          1     1     1     1     1     1     1     1     1     1     1     1     1     1     1     1     1     1     1     1
          1     1     1     1     1     1     1     1     1     1     1     1     1     1     1     1     1     1     1     1
          1     1     1     1     1     1     1     1     1     1     1     1     1     1     1     1     1     1     1     1
          1     1     1     1     1     1     1     1     1     1     1     1     1     1     1     1     1     1     1     1
          1     1     1     1     1     1     1     1     1     1     1     1     1     1     1     1     1     1     1     1
          1     1     1     1     1     1     1     1     1     1     1     1     1     1     1     1     1     1     1     1
          1     1     1     1     1     1     1     1     1     1     1     1     1     1     1     1     1     1     1     1
          1     1     1     1     1     1     1     1     1     1     1     1     1     1     1     1     1     1     1     1
          1     1     1     1     1     1
  42      0     0     0     0     0     0     0     0     0     0     1     1     1     1     1     1     1     1     1     1
          1     1     1     1     1     1     1     1     1     1     1     1     1     1     1     1     1     1     1     1
          1     1     1     1     1     1     1     1     1     1     1     1     1     1     1     1     1     1     1     1
          1     1     1     1     1     1     1     1     1     1     1     1     1     1     1     1     1     1     1     1
          1     1     1     1     1     1     1     1     1     1     1     1     1     1     1     1     1     1     1     1
          1     1     1     1     1     1     1     1     1     1     1     1     1     1     1     1     1     1     1     1
          1     1     1     1     1     1     1     1     1     1     1     1     1     1     1     1     1     1     1     1
          1     1     1     1     1     1     1     1     1     1     1     1     1     1     1     1     1     1     1     1
          1     1     1     1     1     1     1     1     1     1     1     1     1     1     1     1     1     1     1     1
          1     1     1     1     1     1
  43      0     0     0     0     0     0     0     0     0     0     0     1     1     1     1     1     1     1     1     1
          1     1     1     1     1     1     1     1     1     1     1     1     1     1     1     1     1     1     1     1
          1     1     1     1     1     1     1     1     1     1     1     1     1     1     1     1     1     1     1     1
          1     1     1     1     1     1     1     1     1     1     1     1     1     1     1     1     1     1     1     1
          1     1     1     1     1     1     1     1     1     1     1     1     1     1     1     1     1     1     1     1
          1     1     1     1     1     1     1     1     1     1     1     1     1     1     1     1     1     1     1     1
          1     1     1     1     1     1     1     1     1     1     1     1     1     1     1     1     1     1     1     1
          1     1     1     1     1     1     1     1     1     1     1     1     1     1     1     1     1     1     1     1
          1     1     1     1     1     1     1     1     1     1     1     1     1     1     1     1     1     1     1     1
          1     1     1     1     1     1
  44      0     0     0     0     0     0     0     0     0     0     0     1     1     1     1     1     1     1     1     1
          1     1     1     1     1     1     1     1     1     1     1     1     1     1     1     1     1     1     1     1
          1     1     1     1     1     1     1     1     1     1     1     1     1     1     1     1     1     1     1     1
          1     1     1     1     1     1     1     1     1     1     1     1     1     1     1     1     1     1     1     1
          1     1     1     1     1     1     1     1     1     1     1     1     1     1     1     1     1     1     1     1
          1     1     1     1     1     1     1     1     1     1     1     1     1     1     1     1     1     1     1     1
          1     1     1     1     1     1     1     1     1     1     1     1     1     1     1     1     1     1     1     1
          1     1     1     1     1     1     1     1     1     1     1     1     1     1     1     1     1     1     1     1
          1     1     1     1     1     1     1     1     1     1     1     1     1     1     1     1     1     1     1     1
          1     1     1     1     1     1
  45      0     0     0     0     0     0     0     0     0     0     0     1     1     1     1     1     1     1     1     1
          1     1     1     1     1     1     1     1     1     1     1     1     1     1     1     1     1     1     1     1
          1     1     1     1     1     1     1     1     1     1     1     1     1     1     1     1     1     1     1     1
          1     1     1     1     1     1     1     1     1     1     1     1     1     1     1     1     1     1     1     1
          1     1     1     1     1     1     1     1     1     1     1     1     1     1     1     1     1     1     1     1
          1     1     1     1     1     1     1     1     1     1     1     1     1     1     1     1     1     1     1     1
          1     1     1     1     1     1     1     1     1     1     1     1     1     1     1     1     1     1     1     1
          1     1     1     1     1     1     1     1     1     1     1     1     1     1     1     1     1     1     1     1
          1     1     1     1     1     1     1     1     1     1     1     1     1     1     1     1     1     1     1     1
          1     1     1     1     1     1
  46      0     0     0     0     0     0     0     0     0     0     0     1     1     1     1     1     1     1     1     1
          1     1     1     1     1     1     1     1     1     1     1     1     1     1     1     1     1     1     1     1
          1     1     1     1     1     1     1     1     1     1     1     1     1     1     1     1     1     1     1     1
          1     1     1     1     1     1     1     1     1     1     1     1     1     1     1     1     1     1     1     1
          1     1     1     1     1     1     1     1     1     1     1     1     1     1     1     1     1     1     1     1
          1     1     1     1     1     1     1     1     1     1     1     1     1     1     1     1     1     1     1     1
          1     1     1     1     1     1     1     1     1     1     1     1     1     1     1     1     1     1     1     1
          1     1     1     1     1     1     1     1     1     1     1     1     1     1     1     1     1     1     1     1
          1     1     1     1     1     1     1     1     1     1     1     1     1     1     1     1     1     1     1     1
          1     1     1     1     1     1
  47      0     0     0     0     0     0     0     0     0     0     0     1     1     1     1     1     1     1     1     1
          1     1     1     1     1     1     1     1     1     1     1     1     1     1     1     1     1     1     1     1
          1     1     1     1     1     1     1     1     1     1     1     1     1     1     1     1     1     1     1     1
          1     1     1     1     1     1     1     1     1     1     1     1     1     1     1     1     1     1     1     1
          1     1     1     1     1     1     1     1     1     1     1     1     1     1     1     1     1     1     1     1
          1     1     1     1     1     1     1     1     1     1     1     1     1     1     1     1     1     1     1     1
          1     1     1     1     1     1     1     1     1     1     1     1     1     1     1     1     1     1     1     1
          1     1     1     1     1     1     1     1     1     1     1     1     1     1     1     1     1     1     1     1
          1     1     1     1     1     1     1     1     1     1     1     1     1     1     1     1     1     1     1     1
          1     1     1     1     1     1
  48      0     0     0     0     0     0     0     0     0     0     0     0     1     1     1     1     1     1     1     1
          1     1     1     1     1     1     1     1     1     1     1     1     1     1     1     1     1     1     1     1
          1     1     1     1     1     1     1     1     1     1     1     1     1     1     1     1     1     1     1     1
          1     1     1     1     1     1     1     1     1     1     1     1     1     1     1     1     1     1     1     1
          1     1     1     1     1     1     1     1     1     1     1     1     1     1     1     1     1     1     1     1
          1     1     1     1     1     1     1     1     1     1     1     1     1     1     1     1     1     1     1     1
          1     1     1     1     1     1     1     1     1     1     1     1     1     1     1     1     1     1     1     1
          1     1     1     1     1     1     1     1     1     1     1     1     1     1     1     1     1     1     1     1
          1     1     1     1     1     1     1     1     1     1     1     1     1     1     1     1     1     1     1     1
          1     1     1     1     1     1
  49      0     0     0     0     0     0     0     0     0     0     0     0     1     1     1     1     1     1     1     1
          1     1     1     1     1     1     1     1     1     1     1     1     1     1     1     1     1     1     1     1
          1     1     1     1     1     1     1     1     1     1     1     1     1     1     1     1     1     1     1     1
          1     1     1     1     1     1     1     1     1     1     1     1     1     1     1     1     1     1     1     1
          1     1     1     1     1     1     1     1     1     1     1     1     1     1     1     1     1     1     1     1
          1     1     1     1     1     1     1     1     1     1     1     1     1     1     1     1     1     1     1     1
          1     1     1     1     1     1     1     1     1     1     1     1     1     1     1     1     1     1     1     1
          1     1     1     1     1     1     1     1     1     1     1     1     1     1     1     1     1     1     1     1
          1     1     1     1     1     1     1     1     1     1     1     1     1     1     1     1     1     1     1     1
          1     1     1     1     1     1
  50      0     0     0     0     0     0     0     0     0     0     0     0     1     1     1     1     1     1     1     1
          1     1     1     1     1     1     1     1     1     1     1     1     1     1     1     1     1     1     1     1
          1     1     1     1     1     1     1     1     1     1     1     1     1     1     1     1     1     1     1     1
          1     1     1     1     1     1     1     1     1     1     1     1     1     1     1     1     1     1     1     1
          1     1     1     1     1     1     1     1     1     1     1     1     1     1     1     1     1     1     1     1
          1     1     1     1     1     1     1     1     1     1     1     1     1     1     1     1     1     1     1     1
          1     1     1     1     1     1     1     1     1     1     1     1     1     1     1     1     1     1     1     1
          1     1     1     1     1     1     1     1     1     1     1     1     1     1     1     1     1     1     1     1
          1     1     1     1     1     1     1     1     1     1     1     1     1     1     1     1     1     1     1     1
          1     1     1     1     1     1
  51      0     0     0     0     0     0     0     0     0     0     0     0     1     1     1     1     1     1     1     1
          1     1     1     1     1     1     1     1     1     1     1     1     1     1     1     1     1     1     1     1
          1     1     1     1     1     1     1     1     1     1     1     1     1     1     1     1     1     1     1     1
          1     1     1     1     1     1     1     1     1     1     1     1     1     1     1     1     1     1     1     1
          1     1     1     1     1     1     1     1     1     1     1     1     1     1     1     1     1     1     1     1
          1     1     1     1     1     1     1     1     1     1     1     1     1     1     1     1     1     1     1     1
          1     1     1     1     1     1     1     1     1     1     1     1     1     1     1     1     1     1     1     1
          1     1     1     1     1     1     1     1     1     1     1     1     1     1     1     1     1     1     1     1
          1     1     1     1     1     1     1     1     1     1     1     1     1     1     1     1     1     1     1     1
          1     1     1     1     1     1
  52      0     0     0     0     0     0     0     0     0     0     0     0     1     1     1     1     1     1     1     1
          1     1     1     1     1     1     1     1     1     1     1     1     1     1     1     1     1     1     1     1
          1     1     1     1     1     1     1     1     1     1     1     1     1     1     1     1     1     1     1     1
          1     1     1     1     1     1     1     1     1     1     1     1     1     1     1     1     1     1     1     1
          1     1     1     1     1     1     1     1     1     1     1     1     1     1     1     1     1     1     1     1
          1     1     1     1     1     1     1     1     1     1     1     1     1     1     1     1     1     1     1     1
          1     1     1     1     1     1     1     1     1     1     1     1     1     1     1     1     1     1     1     1
          1     1     1     1     1     1     1     1     1     1     1     1     1     1     1     1     1     1     1     1
          1     1     1     1     1     1     1     1     1     1     1     1     1     1     1     1     1     1     1     1
          1     1     1     1     1     1
  53      0     0     0     0     0     0     0     0     0     0     0     0     0     1     1     1     1     1     1     1
          1     1     1     1     1     1     1     1     1     1     1     1     1     1     1     1     1     1     1     1
          1     1     1     1     1     1     1     1     1     1     1     1     1     1     1     1     1     1     1     1
          1     1     1     1     1     1     1     1     1     1     1     1     1     1     1     1     1     1     1     1
          1     1     1     1     1     1     1     1     1     1     1     1     1     1     1     1     1     1     1     1
          1     1     1     1     1     1     1     1     1     1     1     1     1     1     1     1     1     1     1     1
          1     1     1     1     1     1     1     1     1     1     1     1     1     1     1     1     1     1     1     1
          1     1     1     1     1     1     1     1     1     1     1     1     1     1     1     1     1     1     1     1
          1     1     1     1     1     1     1     1     1     1     1     1     1     1     1     1     1     1     1     1
          1     1     1     1     1     1
  54      0     0     0     0     0     0     0     0     0     0     0     0     0     1     1     1     1     1     1     1
          1     1     1     1     1     1     1     1     1     1     1     1     1     1     1     1     1     1     1     1
          1     1     1     1     1     1     1     1     1     1     1     1     1     1     1     1     1     1     1     1
          1     1     1     1     1     1     1     1     1     1     1     1     1     1     1     1     1     1     1     1
          1     1     1     1     1     1     1     1     1     1     1     1     1     1     1     1     1     1     1     1
          1     1     1     1     1     1     1     1     1     1     1     1     1     1     1     1     1     1     1     1
          1     1     1     1     1     1     1     1     1     1     1     1     1     1     1     1     1     1     1     1
          1     1     1     1     1     1     1     1     1     1     1     1     1     1     1     1     1     1     1     1
          1     1     1     1     1     1     1     1     1     1     1     1     1     1     1     1     1     1     1     1
          1     1     1     1     1     1
  55      0     0     0     0     0     0     0     0     0     0     0     0     0     1     1     1     1     1     1     1
          1     1     1     1     1     1     1     1     1     1     1     1     1     1     1     1     1     1     1     1
          1     1     1     1     1     1     1     1     1     1     1     1     1     1     1     1     1     1     1     1
          1     1     1     1     1     1     1     1     1     1     1     1     1     1     1     1     1     1     1     1
          1     1     1     1     1     1     1     1     1     1     1     1     1     1     1     1     1     1     1     1
          1     1     1     1     1     1     1     1     1     1     1     1     1     1     1     1     1     1     1     1
          1     1     1     1     1     1     1     1     1     1     1     1     1     1     1     1     1     1     1     1
          1     1     1     1     1     1     1     1     1     1     1     1     1     1     1     1     1     1     1     1
          1     1     1     1     1     1     1     1     1     1     1     1     1     1     1     1     1     1     1     1
          1     1     1     1     1     1
  56      0     0     0     0     0     0     0     0     0     0     0     0     0     1     1     1     1     1     1     1
          1     1     1     1     1     1     1     1     1     1     1     1     1     1     1     1     1     1     1     1
          1     1     1     1     1     1     1     1     1     1     1     1     1     1     1     1     1     1     1     1
          1     1     1     1     1     1     1     1     1     1     1     1     1     1     1     1     1     1     1     1
          1     1     1     1     1     1     1     1     1     1     1     1     1     1     1     1     1     1     1     1
          1     1     1     1     1     1     1     1     1     1     1     1     1     1     1     1     1     1     1     1
          1     1     1     1     1     1     1     1     1     1     1     1     1     1     1     1     1     1     1     1
          1     1     1     1     1     1     1     1     1     1     1     1     1     1     1     1     1     1     1     1
          1     1     1     1     1     1     1     1     1     1     1     1     1     1     1     1     1     1     1     1
          1     1     1     1     1     1
  57      0     0     0     0     0     0     0     0     0     0     0     0     0     1     1     1     1     1     1     1
          1     1     1     1     1     1     1     1     1     1     1     1     1     1     1     1     1     1     1     1
          1     1     1     1     1     1     1     1     1     1     1     1     1     1     1     1     1     1     1     1
          1     1     1     1     1     1     1     1     1     1     1     1     1     1     1     1     1     1     1     1
          1     1     1     1     1     1     1     1     1     1     1     1     1     1     1     1     1     1     1     1
          1     1     1     1     1     1     1     1     1     1     1     1     1     1     1     1     1     1     1     1
          1     1     1     1     1     1     1     1     1     1     1     1     1     1     1     1     1     1     1     1
          1     1     1     1     1     1     1     1     1     1     1     1     1     1     1     1     1     1     1     1
          1     1     1     1     1     1     1     1     1     1     1     1     1     1     1     1     1     1     1     1
          1     1     1     1     1     1
  58      0     0     0     0     0     0     0     0     0     0     0     0     0     1     1     1     1     1     1     1
          1     1     1     1     1     1     1     1     1     1     1     1     1     1     1     1     1     1     1     1
          1     1     1     1     1     1     1     1     1     1     1     1     1     1     1     1     1     1     1     1
          1     1     1     1     1     1     1     1     1     1     1     1     1     1     1     1     1     1     1     1
          1     1     1     1     1     1     1     1     1     1     1     1     1     1     1     1     1     1     1     1
          1     1     1     1     1     1     1     1     1     1     1     1     1     1     1     1     1     1     1     1
          1     1     1     1     1     1     1     1     1     1     1     1     1     1     1     1     1     1     1     1
          1     1     1     1     1     1     1     1     1     1     1     1     1     1     1     1     1     1     1     1
          1     1     1     1     1     1     1     1     1     1     1     1     1     1     1     1     1     1     1     1
          1     1     1     1     1     1
  59      0     0     0     0     0     0     0     0     0     0     0     0     0     0     1     1     1     1     1     1
          1     1     1     1     1     1     1     1     1     1     1     1     1     1     1     1     1     1     1     1
          1     1     1     1     1     1     1     1     1     1     1     1     1     1     1     1     1     1     1     1
          1     1     1     1     1     1     1     1     1     1     1     1     1     1     1     1     1     1     1     1
          1     1     1     1     1     1     1     1     1     1     1     1     1     1     1     1     1     1     1     1
          1     1     1     1     1     1     1     1     1     1     1     1     1     1     1     1     1     1     1     1
          1     1     1     1     1     1     1     1     1     1     1     1     1     1     1     1     1     1     1     1
          1     1     1     1     1     1     1     1     1     1     1     1     1     1     1     1     1     1     1     1
          1     1     1     1     1     1     1     1     1     1     1     1     1     1     1     1     1     1     1     1
          1     1     1     1     1     1
  60      0     0     0     0     0     0     0     0     0     0     0     0     0     0     1     1     1     1     1     1
          1     1     1     1     1     1     1     1     1     1     1     1     1     1     1     1     1     1     1     1
          1     1     1     1     1     1     1     1     1     1     1     1     1     1     1     1     1     1     1     1
          1     1     1     1     1     1     1     1     1     1     1     1     1     1     1     1     1     1     1     1
          1     1     1     1     1     1     1     1     1     1     1     1     1     1     1     1     1     1     1     1
          1     1     1     1     1     1     1     1     1     1     1     1     1     1     1     1     1     1     1     1
          1     1     1     1     1     1     1     1     1     1     1     1     1     1     1     1     1     1     1     1
          1     1     1     1     1     1     1     1     1     1     1     1     1     1     1     1     1     1     1     1
          1     1     1     1     1     1     1     1     1     1     1     1     1     1     1     1     1     1     1     1
          1     1     1     1     1     1
  61      0     0     0     0     0     0     0     0     0     0     0     0     0     0     1     1     1     1     1     1
          1     1     1     1     1     1     1     1     1     1     1     1     1     1     1     1     1     1     1     1
          1     1     1     1     1     1     1     1     1     1     1     1     1     1     1     1     1     1     1     1
          1     1     1     1     1     1     1     1     1     1     1     1     1     1     1     1     1     1     1     1
          1     1     1     1     1     1     1     1     1     1     1     1     1     1     1     1     1     1     1     1
          1     1     1     1     1     1     1     1     1     1     1     1     1     1     1     1     1     1     1     1
          1     1     1     1     1     1     1     1     1     1     1     1     1     1     1     1     1     1     1     1
          1     1     1     1     1     1     1     1     1     1     1     1     1     1     1     1     1     1     1     1
          1     1     1     1     1     1     1     1     1     1     1     1     1     1     1     1     1     1     1     1
          1     1     1     1     1     1
  62      0     0     0     0     0     0     0     0     0     0     0     0     0     0     1     1     1     1     1     1
          1     1     1     1     1     1     1     1     1     1     1     1     1     1     1     1     1     1     1     1
          1     1     1     1     1     1     1     1     1     1     1     1     1     1     1     1     1     1     1     1
          1     1     1     1     1     1     1     1     1     1     1     1     1     1     1     1     1     1     1     1
          1     1     1     1     1     1     1     1     1     1     1     1     1     1     1     1     1     1     1     1
          1     1     1     1     1     1     1     1     1     1     1     1     1     1     1     1     1     1     1     1
          1     1     1     1     1     1     1     1     1     1     1     1     1     1     1     1     1     1     1     1
          1     1     1     1     1     1     1     1     1     1     1     1     1     1     1     1     1     1     1     1
          1     1     1     1     1     1     1     1     1     1     1     1     1     1     1     1     1     1     1     1
          1     1     1     1     1     1
  63      0     0     0     0     0     0     0     0     0     0     0     0     0     0     1     1     1     1     1     1
          1     1     1     1     1     1     1     1     1     1     1     1     1     1     1     1     1     1     1     1
          1     1     1     1     1     1     1     1     1     1     1     1     1     1     1     1     1     1     1     1
          1     1     1     1     1     1     1     1     1     1     1     1     1     1     1     1     1     1     1     1
          1     1     1     1     1     1     1     1     1     1     1     1     1     1     1     1     1     1     1     1
          1     1     1     1     1     1     1     1     1     1     1     1     1     1     1     1     1     1     1     1
          1     1     1     1     1     1     1     1     1     1     1     1     1     1     1     1     1     1     1     1
          1     1     1     1     1     1     1     1     1     1     1     1     1     1     1     1     1     1     1     1
          1     1     1     1     1     1     1     1     1     1     1     1     1     1     1     1     1     1     1     1
          1     1     1     1     1     1
  64      0     0     0     0     0     0     0     0     0     0     0     0     0     0     1     1     1     1     1     1
          1     1     1     1     1     1     1     1     1     1     1     1     1     1     1     1     1     1     1     1
          1     1     1     1     1     1     1     1     1     1     1     1     1     1     1     1     1     1     1     1
          1     1     1     1     1     1     1     1     1     1     1     1     1     1     1     1     1     1     1     1
          1     1     1     1     1     1     1     1     1     1     1     1     1     1     1     1     1     1     1     1
          1     1     1     1     1     1     1     1     1     1     1     1     1     1     1     1     1     1     1     1
          1     1     1     1     1     1     1     1     1     1     1     1     1     1     1     1     1     1     1     1
          1     1     1     1     1     1     1     1     1     1     1     1     1     1     1     1     1     1     1     1
          1     1     1     1     1     1     1     1     1     1     1     1     1     1     1     1     1     1     1     1
          1     1     1     1     1     1
  65      0     0     0     0     0     0     0     0     0     0     0     0     0     0     1     1     1     1     1     1
          1     1     1     1     1     1     1     1     1     1     1     1     1     1     1     1     1     1     1     1
          1     1     1     1     1     1     1     1     1     1     1     1     1     1     1     1     1     1     1     1
          1     1     1     1     1     1     1     1     1     1     1     1     1     1     1     1     1     1     1     1
          1     1     1     1     1     1     1     1     1     1     1     1     1     1     1     1     1     1     1     1
          1     1     1     1     1     1     1     1     1     1     1     1     1     1     1     1     1     1     1     1
          1     1     1     1     1     1     1     1     1     1     1     1     1     1     1     1     1     1     1     1
          1     1     1     1     1     1     1     1     1     1     1     1     1     1     1     1     1     1     1     1
          1     1     1     1     1     1     1     1     1     1     1     1     1     1     1     1     1     1     1     1
          1     1     1     1     1     1
  66      0     0     0     0     0     0     0     0     0     0     0     0     0     0     0     1     1     1     1     1
          1     1     1     1     1     1     1     1     1     1     1     1     1     1     1     1     1     1     1     1
          1     1     1     1     1     1     1     1     1     1     1     1     1     1     1     1     1     1     1     1
          1     1     1     1     1     1     1     1     1     1     1     1     1     1     1     1     1     1     1     1
          1     1     1     1     1     1     1     1     1     1     1     1     1     1     1     1     1     1     1     1
          1     1     1     1     1     1     1     1     1     1     1     1     1     1     1     1     1     1     1     1
          1     1     1     1     1     1     1     1     1     1     1     1     1     1     1     1     1     1     1     1
          1     1     1     1     1     1     1     1     1     1     1     1     1     1     1     1     1     1     1     1
          1     1     1     1     1     1     1     1     1     1     1     1     1     1     1     1     1     1     1     1
          1     1     1     1     1     1
  67      0     0     0     0     0     0     0     0     0     0     0     0     0     0     0     1     1     1     1     1
          1     1     1     1     1     1     1     1     1     1     1     1     1     1     1     1     1     1     1     1
          1     1     1     1     1     1     1     1     1     1     1     1     1     1     1     1     1     1     1     1
          1     1     1     1     1     1     1     1     1     1     1     1     1     1     1     1     1     1     1     1
          1     1     1     1     1     1     1     1     1     1     1     1     1     1     1     1     1     1     1     1
          1     1     1     1     1     1     1     1     1     1     1     1     1     1     1     1     1     1     1     1
          1     1     1     1     1     1     1     1     1     1     1     1     1     1     1     1     1     1     1     1
          1     1     1     1     1     1     1     1     1     1     1     1     1     1     1     1     1     1     1     1
          1     1     1     1     1     1     1     1     1     1     1     1     1     1     1     1     1     1     1     1
          1     1     1     1     1     1
  68      0     0     0     0     0     0     0     0     0     0     0     0     0     0     0     1     1     1     1     1
          1     1     1     1     1     1     1     1     1     1     1     1     1     1     1     1     1     1     1     1
          1     1     1     1     1     1     1     1     1     1     1     1     1     1     1     1     1     1     1     1
          1     1     1     1     1     1     1     1     1     1     1     1     1     1     1     1     1     1     1     1
          1     1     1     1     1     1     1     1     1     1     1     1     1     1     1     1     1     1     1     1
          1     1     1     1     1     1     1     1     1     1     1     1     1     1     1     1     1     1     1     1
          1     1     1     1     1     1     1     1     1     1     1     1     1     1     1     1     1     1     1     1
          1     1     1     1     1     1     1     1     1     1     1     1     1     1     1     1     1     1     1     1
          1     1     1     1     1     1     1     1     1     1     1     1     1     1     1     1     1     1     1     1
          1     1     1     1     1     1
  69      0     0     0     0     0     0     0     0     0     0     0     0     0     0     0     1     1     1     1     1
          1     1     1     1     1     1     1     1     1     1     1     1     1     1     1     1     1     1     1     1
          1     1     1     1     1     1     1     1     1     1     1     1     1     1     1     1     1     1     1     1
          1     1     1     1     1     1     1     1     1     1     1     1     1     1     1     1     1     1     1     1
          1     1     1     1     1     1     1     1     1     1     1     1     1     1     1     1     1     1     1     1
          1     1     1     1     1     1     1     1     1     1     1     1     1     1     1     1     1     1     1     1
          1     1     1     1     1     1     1     1     1     1     1     1     1     1     1     1     1     1     1     1
          1     1     1     1     1     1     1     1     1     1     1     1     1     1     1     1     1     1     1     1
          1     1     1     1     1     1     1     1     1     1     1     1     1     1     1     1     1     1     1     1
          1     1     1     1     1     1
  70      0     0     0     0     0     0     0     0     0     0     0     0     0     0     0     1     1     1     1     1
          1     1     1     1     1     1     1     1     1     1     1     1     1     1     1     1     1     1     1     1
          1     1     1     1     1     1     1     1     1     1     1     1     1     1     1     1     1     1     1     1
          1     1     1     1     1     1     1     1     1     1     1     1     1     1     1     1     1     1     1     1
          1     1     1     1     1     1     1     1     1     1     1     1     1     1     1     1     1     1     1     1
          1     1     1     1     1     1     1     1     1     1     1     1     1     1     1     1     1     1     1     1
          1     1     1     1     1     1     1     1     1     1     1     1     1     1     1     1     1     1     1     1
          1     1     1     1     1     1     1     1     1     1     1     1     1     1     1     1     1     1     1     1
          1     1     1     1     1     1     1     1     1     1     1     1     1     1     1     1     1     1     1     1
          1     1     1     1     1     1
  71      0     0     0     0     0     0     0     0     0     0     0     0     0     0     0     1     1     1     1     1
          1     1     1     1     1     1     1     1     1     1     1     1     1     1     1     1     1     1     1     1
          1     1     1     1     1     1     1     1     1     1     1     1     1     1     1     1     1     1     1     1
          1     1     1     1     1     1     1     1     1     1     1     1     1     1     1     1     1     1     1     1
          1     1     1     1     1     1     1     1     1     1     1     1     1     1     1     1     1     1     1     1
          1     1     1     1     1     1     1     1     1     1     1     1     1     1     1     1     1     1     1     1
          1     1     1     1     1     1     1     1     1     1     1     1     1     1     1     1     1     1     1     1
          1     1     1     1     1     1     1     1     1     1     1     1     1     1     1     1     1     1     1     1
          1     1     1     1     1     1     1     1     1     1     1     1     1     1     1     1     1     1     1     1
          1     1     1     1     1     1
  72      0     0     0     0     0     0     0     0     0     0     0     0     0     0     0     0     1     1     1     1
          1     1     1     1     1     1     1     1     1     1     1     1     1     1     1     1     1     1     1     1
          1     1     1     1     1     1     1     1     1     1     1     1     1     1     1     1     1     1     1     1
          1     1     1     1     1     1     1     1     1     1     1     1     1     1     1     1     1     1     1     1
          1     1     1     1     1     1     1     1     1     1     1     1     1     1     1     1     1     1     1     1
          1     1     1     1     1     1     1     1     1     1     1     1     1     1     1     1     1     1     1     1
          1     1     1     1     1     1     1     1     1     1     1     1     1     1     1     1     1     1     1     1
          1     1     1     1     1     1     1     1     1     1     1     1     1     1     1     1     1     1     1     1
          1     1     1     1     1     1     1     1     1     1     1     1     1     1     1     1     1     1     1     1
          1     1     1     1     1     1
  73      0     0     0     0     0     0     0     0     0     0     0     0     0     0     0     0     1     1     1     1
          1     1     1     1     1     1     1     1     1     1     1     1     1     1     1     1     1     1     1     1
          1     1     1     1     1     1     1     1     1     1     1     1     1     1     1     1     1     1     1     1
          1     1     1     1     1     1     1     1     1     1     1     1     1     1     1     1     1     1     1     1
          1     1     1     1     1     1     1     1     1     1     1     1     1     1     1     1     1     1     1     1
          1     1     1     1     1     1     1     1     1     1     1     1     1     1     1     1     1     1     1     1
          1     1     1     1     1     1     1     1     1     1     1     1     1     1     1     1     1     1     1     1
          1     1     1     1     1     1     1     1     1     1     1     1     1     1     1     1     1     1     1     1
          1     1     1     1     1     1     1     1     1     1     1     1     1     1     1     1     1     1     1     1
          1     1     1     1     1     1
  74      0     0     0     0     0     0     0     0     0     0     0     0     0     0     0     0     1     1     1     1
          1     1     1     1     1     1     1     1     1     1     1     1     1     1     1     1     1     1     1     1
          1     1     1     1     1     1     1     1     1     1     1     1     1     1     1     1     1     1     1     1
          1     1     1     1     1     1     1     1     1     1     1     1     1     1     1     1     1     1     1     1
          1     1     1     1     1     1     1     1     1     1     1     1     1     1     1     1     1     1     1     1
          1     1     1     1     1     1     1     1     1     1     1     1     1     1     1     1     1     1     1     1
          1     1     1     1     1     1     1     1     1     1     1     1     1     1     1     1     1     1     1     1
          1     1     1     1     1     1     1     1     1     1     1     1     1     1     1     1     1     1     1     1
          1     1     1     1     1     1     1     1     1     1     1     1     1     1     1     1     1     1     1     1
          1     1     1     1     1     1
  75      0     0     0     0     0     0     0     0     0     0     0     0     0     0     0     0     1     1     1     1
          1     1     1     1     1     1     1     1     1     1     1     1     1     1     1     1     1     1     1     1
          1     1     1     1     1     1     1     1     1     1     1     1     1     1     1     1     1     1     1     1
          1     1     1     1     1     1     1     1     1     1     1     1     1     1     1     1     1     1     1     1
          1     1     1     1     1     1     1     1     1     1     1     1     1     1     1     1     1     1     1     1
          1     1     1     1     1     1     1     1     1     1     1     1     1     1     1     1     1     1     1     1
          1     1     1     1     1     1     1     1     1     1     1     1     1     1     1     1     1     1     1     1
          1     1     1     1     1     1     1     1     1     1     1     1     1     1     1     1     1     1     1     1
          1     1     1     1     1     1     1     1     1     1     1     1     1     1     1     1     1     1     1     1
          1     1     1     1     1     1
  76      0     0     0     0     0     0     0     0     0     0     0     0     0     0     0     1     1     1     1     1
          1     1     1     1     1     1     1     1     1     1     1     1     1     1     1     1     1     1     1     1
          1     1     1     1     1     1     1     1     1     1     1     1     1     1     1     1     1     1     1     1
          1     1     1     1     1     1     1     1     1     1     1     1     1     1     1     1     1     1     1     1
          1     1     1     1     1     1     1     1     1     1     1     1     1     1     1     1     1     1     1     1
          1     1     1     1     1     1     1     1     1     1     1     1     1     1     1     1     1     1     1     1
          1     1     1     1     1     1     1     1     1     1     1     1     1     1     1     1     1     1     1     1
          1     1     1     1     1     1     1     1     1     1     1     1     1     1     1     1     1     1     1     1
          1     1     1     1     1     1     1     1     1     1     1     1     1     1     1     1     1     1     1     1
          1     1     1     1     1     1
  77      0     0     0     0     0     0     0     0     0     0     0     0     0     0     0     1     1     1     1     1
          1     1     1     1     1     1     1     1     1     1     1     1     1     1     1     1     1     1     1     1
          1     1     1     1     1     1     1     1     1     1     1     1     1     1     1     1     1     1     1     1
          1     1     1     1     1     1     1     1     1     1     1     1     1     1     1     1     1     1     1     1
          1     1     1     1     1     1     1     1     1     1     1     1     1     1     1     1     1     1     1     1
          1     1     1     1     1     1     1     1     1     1     1     1     1     1     1     1     1     1     1     1
          1     1     1     1     1     1     1     1     1     1     1     1     1     1     1     1     1     1     1     1
          1     1     1     1     1     1     1     1     1     1     1     1     1     1     1     1     1     1     1     1
          1     1     1     1     1     1     1     1     1     1     1     1     1     1     1     1     1     1     1     1
          1     1     1     1     1     1
  78      0     0     0     0     0     0     0     0     0     0     0     0     0     0     0     1     1     1     1     1
          1     1     1     1     1     1     1     1     1     1     1     1     1     1     1     1     1     1     1     1
          1     1     1     1     1     1     1     1     1     1     1     1     1     1     1     1     1     1     1     1
          1     1     1     1     1     1     1     1     1     1     1     1     1     1     1     1     1     1     1     1
          1     1     1     1     1     1     1     1     1     1     1     1     1     1     1     1     1     1     1     1
          1     1     1     1     1     1     1     1     1     1     1     1     1     1     1     1     1     1     1     1
          1     1     1     1     1     1     1     1     1     1     1     1     1     1     1     1     1     1     1     1
          1     1     1     1     1     1     1     1     1     1     1     1     1     1     1     1     1     1     1     1
          1     1     1     1     1     1     1     1     1     1     1     1     1     1     1     1     1     1     1     1
          1     1     1     1     1     1
  79      0     0     0     0     0     0     0     0     0     0     0     0     0     0     0     1     1     1     1     1
          1     1     1     1     1     1     1     1     1     1     1     1     1     1     1     1     1     1     1     1
          1     1     1     1     1     1     1     1     1     1     1     1     1     1     1     1     1     1     1     1
          1     1     1     1     1     1     1     1     1     1     1     1     1     1     1     1     1     1     1     1
          1     1     1     1     1     1     1     1     1     1     1     1     1     1     1     1     1     1     1     1
          1     1     1     1     1     1     1     1     1     1     1     1     1     1     1     1     1     1     1     1
          1     1     1     1     1     1     1     1     1     1     1     1     1     1     1     1     1     1     1     1
          1     1     1     1     1     1     1     1     1     1     1     1     1     1     1     1     1     1     1     1
          1     1     1     1     1     1     1     1     1     1     1     1     1     1     1     1     1     1     1     1
          1     1     1     1     1     1
  80      0     0     0     0     0     0     0     0     0     0     0     0     0     0     0     1     1     1     1     1
          1     1     1     1     1     1     1     1     1     1     1     1     1     1     1     1     1     1     1     1
          1     1     1     1     1     1     1     1     1     1     1     1     1     1     1     1     1     1     1     1
          1     1     1     1     1     1     1     1     1     1     1     1     1     1     1     1     1     1     1     1
          1     1     1     1     1     1     1     1     1     1     1     1     1     1     1     1     1     1     1     1
          1     1     1     1     1     1     1     1     1     1     1     1     1     1     1     1     1     1     1     1
          1     1     1     1     1     1     1     1     1     1     1     1     1     1     1     1     1     1     1     1
          1     1     1     1     1     1     1     1     1     1     1     1     1     1     1     1     1     1     1     1
          1     1     1     1     1     1     1     1     1     1     1     1     1     1     1     1     1     1     1     1
          1     1     1     1     1     1
  81      0     0     0     0     0     0     0     0     0     0     0     0     0     0     0     1     1     1     1     1
          1     1     1     1     1     1     1     1     1     1     1     1     1     1     1     1     1     1     1     1
          1     1     1     1     1     1     1     1     1     1     1     1     1     1     1     1     1     1     1     1
          1     1     1     1     1     1     1     1     1     1     1     1     1     1     1     1     1     1     1     1
          1     1     1     1     1     1     1     1     1     1     1     1     1     1     1     1     1     1     1     1
          1     1     1     1     1     1     1     1     1     1     1     1     1     1     1     1     1     1     1     1
          1     1     1     1     1     1     1     1     1     1     1     1     1     1     1     1     1     1     1     1
          1     1     1     1     1     1     1     1     1     1     1     1     1     1     1     1     1     1     1     1
          1     1     1     1     1     1     1     1     1     1     1     1     1     1     1     1     1     1     1     1
          1     1     1     1     1     1
  82      0     0     0     0     0     0     0     0     0     0     0     0     0     0     0     1     1     1     1     1
          1     1     1     1     1     1     1     1     1     1     1     1     1     1     1     1     1     1     1     1
          1     1     1     1     1     1     1     1     1     1     1     1     1     1     1     1     1     1     1     1
          1     1     1     1     1     1     1     1     1     1     1     1     1     1     1     1     1     1     1     1
          1     1     1     1     1     1     1     1     1     1     1     1     1     1     1     1     1     1     1     1
          1     1     1     1     1     1     1     1     1     1     1     1     1     1     1     1     1     1     1     1
          1     1     1     1     1     1     1     1     1     1     1     1     1     1     1     1     1     1     1     1
          1     1     1     1     1     1     1     1     1     1     1     1     1     1     1     1     1     1     1     1
          1     1     1     1     1     1     1     1     1     1     1     1     1     1     1     1     1     1     1     1
          1     1     1     1     1     1
  83      0     0     0     0     0     0     0     0     0     0     0     0     0     0     0     1     1     1     1     1
          1     1     1     1     1     1     1     1     1     1     1     1     1     1     1     1     1     1     1     1
          1     1     1     1     1     1     1     1     1     1     1     1     1     1     1     1     1     1     1     1
          1     1     1     1     1     1     1     1     1     1     1     1     1     1     1     1     1     1     1     1
          1     1     1     1     1     1     1     1     1     1     1     1     1     1     1     1     1     1     1     1
          1     1     1     1     1     1     1     1     1     1     1     1     1     1     1     1     1     1     1     1
          1     1     1     1     1     1     1     1     1     1     1     1     1     1     1     1     1     1     1     1
          1     1     1     1     1     1     1     1     1     1     1     1     1     1     1     1     1     1     1     1
          1     1     1     1     1     1     1     1     1     1     1     1     1     1     1     1     1     1     1     1
          1     1     1     1     1     1
  84      0     0     0     0     0     0     0     0     0     0     0     0     0     0     0     1     1     1     1     1
          1     1     1     1     1     1     1     1     1     1     1     1     1     1     1     1     1     1     1     1
          1     1     1     1     1     1     1     1     1     1     1     1     1     1     1     1     1     1     1     1
          1     1     1     1     1     1     1     1     1     1     1     1     1     1     1     1     1     1     1     1
          1     1     1     1     1     1     1     1     1     1     1     1     1     1     1     1     1     1     1     1
          1     1     1     1     1     1     1     1     1     1     1     1     1     1     1     1     1     1     1     1
          1     1     1     1     1     1     1     1     1     1     1     1     1     1     1     1     1     1     1     1
          1     1     1     1     1     1     1     1     1     1     1     1     1     1     1     1     1     1     1     1
          1     1     1     1     1     1     1     1     1     1     1     1     1     1     1     1     1     1     1     1
          1     1     1     1     1     1
  85      0     0     0     0     0     0     0     0     0     0     0     0     0     0     0     1     1     1     1     1
          1     1     1     1     1     1     1     1     1     1     1     1     1     1     1     1     1     1     1     1
          1     1     1     1     1     1     1     1     1     1     1     1     1     1     1     1     1     1     1     1
          1     1     1     1     1     1     1     1     1     1     1     1     1     1     1     1     1     1     1     1
          1     1     1     1     1     1     1     1     1     1     1     1     1     1     1     1     1     1     1     1
          1     1     1     1     1     1     1     1     1     1     1     1     1     1     1     1     1     1     1     1
          1     1     1     1     1     1     1     1     1     1     1     1     1     1     1     1     1     1     1     1
          1     1     1     1     1     1     1     1     1     1     1     1     1     1     1     1     1     1     1     1
          1     1     1     1     1     1     1     1     1     1     1     1     1     1     1     1     1     1     1     1
          1     1     1     1     1     1
  86      0     0     0     0     0     0     0     0     0     0     0     0     0     0     0     1     1     1     1     1
          1     1     1     1     1     1     1     1     1     1     1     1     1     1     1     1     1     1     1     1
          1     1     1     1     1     1     1     1     1     1     1     1     1     1     1     1     1     1     1     1
          1     1     1     1     1     1     1     1     1     1     1     1     1     1     1     1     1     1     1     1
          1     1     1     1     1     1     1     1     1     1     1     1     1     1     1     1     1     1     1     1
          1     1     1     1     1     1     1     1     1     1     1     1     1     1     1     1     1     1     1     1
          1     1     1     1     1     1     1     1     1     1     1     1     1     1     1     1     1     1     1     1
          1     1     1     1     1     1     1     1     1     1     1     1     1     1     1     1     1     1     1     1
          1     1     1     1     1     1     1     1     1     1     1     1     1     1     1     1     1     1     1     1
          1     1     1     1     1     1
  87      0     0     0     0     0     0     0     0     0     0     0     0     0     0     0     1     1     1     1     1
          1     1     1     1     1     1     1     1     1     1     1     1     1     1     1     1     1     1     1     1
          1     1     1     1     1     1     1     1     1     1     1     1     1     1     1     1     1     1     1     1
          1     1     1     1     1     1     1     1     1     1     1     1     1     1     1     1     1     1     1     1
          1     1     1     1     1     1     1     1     1     1     1     1     1     1     1     1     1     1     1     1
          1     1     1     1     1     1     1     1     1     1     1     1     1     1     1     1     1     1     1     1
          1     1     1     1     1     1     1     1     1     1     1     1     1     1     1     1     1     1     1     1
          1     1     1     1     1     1     1     1     1     1     1     1     1     1     1     1     1     1     1     1
          1     1     1     1     1     1     1     1     1     1     1     1     1     1     1     1     1     1     1     1
          1     1     1     1     1     1
  88      0     0     0     0     0     0     0     0     0     0     0     0     0     0     0     1     1     1     1     1
          1     1     1     1     1     1     1     1     1     1     1     1     1     1     1     1     1     1     1     1
          1     1     1     1     1     1     1     1     1     1     1     1     1     1     1     1     1     1     1     1
          1     1     1     1     1     1     1     1     1     1     1     1     1     1     1     1     1     1     1     1
          1     1     1     1     1     1     1     1     1     1     1     1     1     1     1     1     1     1     1     1
          1     1     1     1     1     1     1     1     1     1     1     1     1     1     1     1     1     1     1     1
          1     1     1     1     1     1     1     1     1     1     1     1     1     1     1     1     1     1     1     1
          1     1     1     1     1     1     1     1     1     1     1     1     1     1     1     1     1     1     1     1
          1     1     1     1     1     1     1     1     1     1     1     1     1     1     1     1     1     1     1     1
          1     1     1     1     1     1
  89      0     0     0     0     0     0     0     0     0     0     0     0     0     0     0     1     1     1     1     1
          1     1     1     1     1     1     1     1     1     1     1     1     1     1     1     1     1     1     1     1
          1     1     1     1     1     1     1     1     1     1     1     1     1     1     1     1     1     1     1     1
          1     1     1     1     1     1     1     1     1     1     1     1     1     1     1     1     1     1     1     1
          1     1     1     1     1     1     1     1     1     1     1     1     1     1     1     1     1     1     1     1
          1     1     1     1     1     1     1     1     1     1     1     1     1     1     1     1     1     1     1     1
          1     1     1     1     1     1     1     1     1     1     1     1     1     1     1     1     1     1     1     1
          1     1     1     1     1     1     1     1     1     1     1     1     1     1     1     1     1     1     1     1
          1     1     1     1     1     1     1     1     1     1     1     1     1     1     1     1     1     1     1     1
          1     1     1     1     1     1



                     BOUNDARY ARRAY FOR LAYER   4
 READING ON UNIT   13 WITH FORMAT: (FREE)              

          1     2     3     4     5     6     7     8     9    10    11    12    13    14    15    16    17    18    19    20
         21    22    23    24    25    26    27    28    29    30    31    32    33    34    35    36    37    38    39    40
         41    42    43    44    45    46    47    48    49    50    51    52    53    54    55    56    57    58    59    60
         61    62    63    64    65    66    67    68    69    70    71    72    73    74    75    76    77    78    79    80
         81    82    83    84    85    86    87    88    89    90    91    92    93    94    95    96    97    98    99   100
        101   102   103   104   105   106   107   108   109   110   111   112   113   114   115   116   117   118   119   120
        121   122   123   124   125   126   127   128   129   130   131   132   133   134   135   136   137   138   139   140
        141   142   143   144   145   146   147   148   149   150   151   152   153   154   155   156   157   158   159   160
        161   162   163   164   165   166   167   168   169   170   171   172   173   174   175   176   177   178   179   180
        181   182   183   184   185   186
 ............................................................................................................................
   1      0     0     0     1     1     1     1     1     1     1     1     1     1     1     1     1     1     1     1     1
          1     1     1     1     1     1     1     1     1     1     1     1     1     1     1     1     1     1     1     1
          1     1     1     1     1     1     1     1     1     1     1     1     1     1     1     1     1     1     1     1
          1     1     1     1     1     1     1     1     1     1     1     1     1     1     1     1     1     1     1     1
          1     1     1     1     1     1     1     1     1     1     1     1     1     1     1     1     1     1     1     1
          1     1     1     1     1     1     1     1     1     1     1     1     1     1     1     1     1     1     1     1
          1     1     1     1     1     1     1     1     1     1     1     1     1     1     1     1     1     1     1     1
          1     1     1     1     1     1     1     1     1     1     1     1     1     1     1     1     1     1     1     1
          1     1     1     1     1     1     1     1     1     1     1     1     1     1     1     1     1     1     1     1
          1     1     1     1     1     1
   2      0     0     0     1     1     1     1     1     1     1     1     1     1     1     1     1     1     1     1     1
          1     1     1     1     1     1     1     1     1     1     1     1     1     1     1     1     1     1     1     1
          1     1     1     1     1     1     1     1     1     1     1     1     1     1     1     1     1     1     1     1
          1     1     1     1     1     1     1     1     1     1     1     1     1     1     1     1     1     1     1     1
          1     1     1     1     1     1     1     1     1     1     1     1     1     1     1     1     1     1     1     1
          1     1     1     1     1     1     1     1     1     1     1     1     1     1     1     1     1     1     1     1
          1     1     1     1     1     1     1     1     1     1     1     1     1     1     1     1     1     1     1     1
          1     1     1     1     1     1     1     1     1     1     1     1     1     1     1     1     1     1     1     1
          1     1     1     1     1     1     1     1     1     1     1     1     1     1     1     1     1     1     1     1
          1     1     1     1     1     1
   3      0     0     0     0     1     1     1     1     1     1     1     1     1     1     1     1     1     1     1     1
          1     1     1     1     1     1     1     1     1     1     1     1     1     1     1     1     1     1     1     1
          1     1     1     1     1     1     1     1     1     1     1     1     1     1     1     1     1     1     1     1
          1     1     1     1     1     1     1     1     1     1     1     1     1     1     1     1     1     1     1     1
          1     1     1     1     1     1     1     1     1     1     1     1     1     1     1     1     1     1     1     1
          1     1     1     1     1     1     1     1     1     1     1     1     1     1     1     1     1     1     1     1
          1     1     1     1     1     1     1     1     1     1     1     1     1     1     1     1     1     1     1     1
          1     1     1     1     1     1     1     1     1     1     1     1     1     1     1     1     1     1     1     1
          1     1     1     1     1     1     1     1     1     1     1     1     1     1     1     1     1     1     1     1
          1     1     1     1     1     1
   4      0     0     0     0     1     1     1     1     1     1     1     1     1     1     1     1     1     1     1     1
          1     1     1     1     1     1     1     1     1     1     1     1     1     1     1     1     1     1     1     1
          1     1     1     1     1     1     1     1     1     1     1     1     1     1     1     1     1     1     1     1
          1     1     1     1     1     1     1     1     1     1     1     1     1     1     1     1     1     1     1     1
          1     1     1     1     1     1     1     1     1     1     1     1     1     1     1     1     1     1     1     1
          1     1     1     1     1     1     1     1     1     1     1     1     1     1     1     1     1     1     1     1
          1     1     1     1     1     1     1     1     1     1     1     1     1     1     1     1     1     1     1     1
          1     1     1     1     1     1     1     1     1     1     1     1     1     1     1     1     1     1     1     1
          1     1     1     1     1     1     1     1     1     1     1     1     1     1     1     1     1     1     1     1
          1     1     1     1     1     1
   5      0     0     0     0     1     1     1     1     1     1     1     1     1     1     1     1     1     1     1     1
          1     1     1     1     1     1     1     1     1     1     1     1     1     1     1     1     1     1     1     1
          1     1     1     1     1     1     1     1     1     1     1     1     1     1     1     1     1     1     1     1
          1     1     1     1     1     1     1     1     1     1     1     1     1     1     1     1     1     1     1     1
          1     1     1     1     1     1     1     1     1     1     1     1     1     1     1     1     1     1     1     1
          1     1     1     1     1     1     1     1     1     1     1     1     1     1     1     1     1     1     1     1
          1     1     1     1     1     1     1     1     1     1     1     1     1     1     1     1     1     1     1     1
          1     1     1     1     1     1     1     1     1     1     1     1     1     1     1     1     1     1     1     1
          1     1     1     1     1     1     1     1     1     1     1     1     1     1     1     1     1     1     1     1
          1     1     1     1     1     1
   6      0     0     0     0     1     1     1     1     1     1     1     1     1     1     1     1     1     1     1     1
          1     1     1     1     1     1     1     1     1     1     1     1     1     1     1     1     1     1     1     1
          1     1     1     1     1     1     1     1     1     1     1     1     1     1     1     1     1     1     1     1
          1     1     1     1     1     1     1     1     1     1     1     1     1     1     1     1     1     1     1     1
          1     1     1     1     1     1     1     1     1     1     1     1     1     1     1     1     1     1     1     1
          1     1     1     1     1     1     1     1     1     1     1     1     1     1     1     1     1     1     1     1
          1     1     1     1     1     1     1     1     1     1     1     1     1     1     1     1     1     1     1     1
          1     1     1     1     1     1     1     1     1     1     1     1     1     1     1     1     1     1     1     1
          1     1     1     1     1     1     1     1     1     1     1     1     1     1     1     1     1     1     1     1
          1     1     1     1     1     1
   7      0     0     0     0     0     1     1     1     1     1     1     1     1     1     1     1     1     1     1     1
          1     1     1     1     1     1     1     1     1     1     1     1     1     1     1     1     1     1     1     1
          1     1     1     1     1     1     1     1     1     1     1     1     1     1     1     1     1     1     1     1
          1     1     1     1     1     1     1     1     1     1     1     1     1     1     1     1     1     1     1     1
          1     1     1     1     1     1     1     1     1     1     1     1     1     1     1     1     1     1     1     1
          1     1     1     1     1     1     1     1     1     1     1     1     1     1     1     1     1     1     1     1
          1     1     1     1     1     1     1     1     1     1     1     1     1     1     1     1     1     1     1     1
          1     1     1     1     1     1     1     1     1     1     1     1     1     1     1     1     1     1     1     1
          1     1     1     1     1     1     1     1     1     1     1     1     1     1     1     1     1     1     1     1
          1     1     1     1     1     1
   8      0     0     0     0     0     1     1     1     1     1     1     1     1     1     1     1     1     1     1     1
          1     1     1     1     1     1     1     1     1     1     1     1     1     1     1     1     1     1     1     1
          1     1     1     1     1     1     1     1     1     1     1     1     1     1     1     1     1     1     1     1
          1     1     1     1     1     1     1     1     1     1     1     1     1     1     1     1     1     1     1     1
          1     1     1     1     1     1     1     1     1     1     1     1     1     1     1     1     1     1     1     1
          1     1     1     1     1     1     1     1     1     1     1     1     1     1     1     1     1     1     1     1
          1     1     1     1     1     1     1     1     1     1     1     1     1     1     1     1     1     1     1     1
          1     1     1     1     1     1     1     1     1     1     1     1     1     1     1     1     1     1     1     1
          1     1     1     1     1     1     1     1     1     1     1     1     1     1     1     1     1     1     1     1
          1     1     1     1     1     1
   9      0     0     0     0     0     1     1     1     1     1     1     1     1     1     1     1     1     1     1     1
          1     1     1     1     1     1     1     1     1     1     1     1     1     1     1     1     1     1     1     1
          1     1     1     1     1     1     1     1     1     1     1     1     1     1     1     1     1     1     1     1
          1     1     1     1     1     1     1     1     1     1     1     1     1     1     1     1     1     1     1     1
          1     1     1     1     1     1     1     1     1     1     1     1     1     1     1     1     1     1     1     1
          1     1     1     1     1     1     1     1     1     1     1     1     1     1     1     1     1     1     1     1
          1     1     1     1     1     1     1     1     1     1     1     1     1     1     1     1     1     1     1     1
          1     1     1     1     1     1     1     1     1     1     1     1     1     1     1     1     1     1     1     1
          1     1     1     1     1     1     1     1     1     1     1     1     1     1     1     1     1     1     1     1
          1     1     1     1     1     1
  10      0     0     0     0     0     0     1     1     1     1     1     1     1     1     1     1     1     1     1     1
          1     1     1     1     1     1     1     1     1     1     1     1     1     1     1     1     1     1     1     1
          1     1     1     1     1     1     1     1     1     1     1     1     1     1     1     1     1     1     1     1
          1     1     1     1     1     1     1     1     1     1     1     1     1     1     1     1     1     1     1     1
          1     1     1     1     1     1     1     1     1     1     1     1     1     1     1     1     1     1     1     1
          1     1     1     1     1     1     1     1     1     1     1     1     1     1     1     1     1     1     1     1
          1     1     1     1     1     1     1     1     1     1     1     1     1     1     1     1     1     1     1     1
          1     1     1     1     1     1     1     1     1     1     1     1     1     1     1     1     1     1     1     1
          1     1     1     1     1     1     1     1     1     1     1     1     1     1     1     1     1     1     1     1
          1     1     1     1     1     1
  11      0     0     0     0     0     0     1     1     1     1     1     1     1     1     1     1     1     1     1     1
          1     1     1     1     1     1     1     1     1     1     1     1     1     1     1     1     1     1     1     1
          1     1     1     1     1     1     1     1     1     1     1     1     1     1     1     1     1     1     1     1
          1     1     1     1     1     1     1     1     1     1     1     1     1     1     1     1     1     1     1     1
          1     1     1     1     1     1     1     1     1     1     1     1     1     1     1     1     1     1     1     1
          1     1     1     1     1     1     1     1     1     1     1     1     1     1     1     1     1     1     1     1
          1     1     1     1     1     1     1     1     1     1     1     1     1     1     1     1     1     1     1     1
          1     1     1     1     1     1     1     1     1     1     1     1     1     1     1     1     1     1     1     1
          1     1     1     1     1     1     1     1     1     1     1     1     1     1     1     1     1     1     1     1
          1     1     1     1     1     1
  12      0     0     0     0     0     0     1     1     1     1     1     1     1     1     1     1     1     1     1     1
          1     1     1     1     1     1     1     1     1     1     1     1     1     1     1     1     1     1     1     1
          1     1     1     1     1     1     1     1     1     1     1     1     1     1     1     1     1     1     1     1
          1     1     1     1     1     1     1     1     1     1     1     1     1     1     1     1     1     1     1     1
          1     1     1     1     1     1     1     1     1     1     1     1     1     1     1     1     1     1     1     1
          1     1     1     1     1     1     1     1     1     1     1     1     1     1     1     1     1     1     1     1
          1     1     1     1     1     1     1     1     1     1     1     1     1     1     1     1     1     1     1     1
          1     1     1     1     1     1     1     1     1     1     1     1     1     1     1     1     1     1     1     1
          1     1     1     1     1     1     1     1     1     1     1     1     1     1     1     1     1     1     1     1
          1     1     1     1     1     1
  13      0     0     0     0     0     0     1     1     1     1     1     1     1     1     1     1     1     1     1     1
          1     1     1     1     1     1     1     1     1     1     1     1     1     1     1     1     1     1     1     1
          1     1     1     1     1     1     1     1     1     1     1     1     1     1     1     1     1     1     1     1
          1     1     1     1     1     1     1     1     1     1     1     1     1     1     1     1     1     1     1     1
          1     1     1     1     1     1     1     1     1     1     1     1     1     1     1     1     1     1     1     1
          1     1     1     1     1     1     1     1     1     1     1     1     1     1     1     1     1     1     1     1
          1     1     1     1     1     1     1     1     1     1     1     1     1     1     1     1     1     1     1     1
          1     1     1     1     1     1     1     1     1     1     1     1     1     1     1     1     1     1     1     1
          1     1     1     1     1     1     1     1     1     1     1     1     1     1     1     1     1     1     1     1
          1     1     1     1     1     1
  14      0     0     0     0     0     0     1     1     1     1     1     1     1     1     1     1     1     1     1     1
          1     1     1     1     1     1     1     1     1     1     1     1     1     1     1     1     1     1     1     1
          1     1     1     1     1     1     1     1     1     1     1     1     1     1     1     1     1     1     1     1
          1     1     1     1     1     1     1     1     1     1     1     1     1     1     1     1     1     1     1     1
          1     1     1     1     1     1     1     1     1     1     1     1     1     1     1     1     1     1     1     1
          1     1     1     1     1     1     1     1     1     1     1     1     1     1     1     1     1     1     1     1
          1     1     1     1     1     1     1     1     1     1     1     1     1     1     1     1     1     1     1     1
          1     1     1     1     1     1     1     1     1     1     1     1     1     1     1     1     1     1     1     1
          1     1     1     1     1     1     1     1     1     1     1     1     1     1     1     1     1     1     1     1
          1     1     1     1     1     1
  15      0     0     0     0     0     0     1     1     1     1     1     1     1     1     1     1     1     1     1     1
          1     1     1     1     1     1     1     1     1     1     1     1     1     1     1     1     1     1     1     1
          1     1     1     1     1     1     1     1     1     1     1     1     1     1     1     1     1     1     1     1
          1     1     1     1     1     1     1     1     1     1     1     1     1     1     1     1     1     1     1     1
          1     1     1     1     1     1     1     1     1     1     1     1     1     1     1     1     1     1     1     1
          1     1     1     1     1     1     1     1     1     1     1     1     1     1     1     1     1     1     1     1
          1     1     1     1     1     1     1     1     1     1     1     1     1     1     1     1     1     1     1     1
          1     1     1     1     1     1     1     1     1     1     1     1     1     1     1     1     1     1     1     1
          1     1     1     1     1     1     1     1     1     1     1     1     1     1     1     1     1     1     1     1
          1     1     1     1     1     1
  16      0     0     0     0     0     0     1     1     1     1     1     1     1     1     1     1     1     1     1     1
          1     1     1     1     1     1     1     1     1     1     1     1     1     1     1     1     1     1     1     1
          1     1     1     1     1     1     1     1     1     1     1     1     1     1     1     1     1     1     1     1
          1     1     1     1     1     1     1     1     1     1     1     1     1     1     1     1     1     1     1     1
          1     1     1     1     1     1     1     1     1     1     1     1     1     1     1     1     1     1     1     1
          1     1     1     1     1     1     1     1     1     1     1     1     1     1     1     1     1     1     1     1
          1     1     1     1     1     1     1     1     1     1     1     1     1     1     1     1     1     1     1     1
          1     1     1     1     1     1     1     1     1     1     1     1     1     1     1     1     1     1     1     1
          1     1     1     1     1     1     1     1     1     1     1     1     1     1     1     1     1     1     1     1
          1     1     1     1     1     1
  17      0     0     0     0     0     0     0     1     1     1     1     1     1     1     1     1     1     1     1     1
          1     1     1     1     1     1     1     1     1     1     1     1     1     1     1     1     1     1     1     1
          1     1     1     1     1     1     1     1     1     1     1     1     1     1     1     1     1     1     1     1
          1     1     1     1     1     1     1     1     1     1     1     1     1     1     1     1     1     1     1     1
          1     1     1     1     1     1     1     1     1     1     1     1     1     1     1     1     1     1     1     1
          1     1     1     1     1     1     1     1     1     1     1     1     1     1     1     1     1     1     1     1
          1     1     1     1     1     1     1     1     1     1     1     1     1     1     1     1     1     1     1     1
          1     1     1     1     1     1     1     1     1     1     1     1     1     1     1     1     1     1     1     1
          1     1     1     1     1     1     1     1     1     1     1     1     1     1     1     1     1     1     1     1
          1     1     1     1     1     1
  18      0     0     0     0     0     0     0     1     1     1     1     1     1     1     1     1     1     1     1     1
          1     1     1     1     1     1     1     1     1     1     1     1     1     1     1     1     1     1     1     1
          1     1     1     1     1     1     1     1     1     1     1     1     1     1     1     1     1     1     1     1
          1     1     1     1     1     1     1     1     1     1     1     1     1     1     1     1     1     1     1     1
          1     1     1     1     1     1     1     1     1     1     1     1     1     1     1     1     1     1     1     1
          1     1     1     1     1     1     1     1     1     1     1     1     1     1     1     1     1     1     1     1
          1     1     1     1     1     1     1     1     1     1     1     1     1     1     1     1     1     1     1     1
          1     1     1     1     1     1     1     1     1     1     1     1     1     1     1     1     1     1     1     1
          1     1     1     1     1     1     1     1     1     1     1     1     1     1     1     1     1     1     1     1
          1     1     1     1     1     1
  19      0     0     0     0     0     0     0     1     1     1     1     1     1     1     1     1     1     1     1     1
          1     1     1     1     1     1     1     1     1     1     1     1     1     1     1     1     1     1     1     1
          1     1     1     1     1     1     1     1     1     1     1     1     1     1     1     1     1     1     1     1
          1     1     1     1     1     1     1     1     1     1     1     1     1     1     1     1     1     1     1     1
          1     1     1     1     1     1     1     1     1     1     1     1     1     1     1     1     1     1     1     1
          1     1     1     1     1     1     1     1     1     1     1     1     1     1     1     1     1     1     1     1
          1     1     1     1     1     1     1     1     1     1     1     1     1     1     1     1     1     1     1     1
          1     1     1     1     1     1     1     1     1     1     1     1     1     1     1     1     1     1     1     1
          1     1     1     1     1     1     1     1     1     1     1     1     1     1     1     1     1     1     1     1
          1     1     1     1     1     1
  20      0     0     0     0     0     0     0     1     1     1     1     1     1     1     1     1     1     1     1     1
          1     1     1     1     1     1     1     1     1     1     1     1     1     1     1     1     1     1     1     1
          1     1     1     1     1     1     1     1     1     1     1     1     1     1     1     1     1     1     1     1
          1     1     1     1     1     1     1     1     1     1     1     1     1     1     1     1     1     1     1     1
          1     1     1     1     1     1     1     1     1     1     1     1     1     1     1     1     1     1     1     1
          1     1     1     1     1     1     1     1     1     1     1     1     1     1     1     1     1     1     1     1
          1     1     1     1     1     1     1     1     1     1     1     1     1     1     1     1     1     1     1     1
          1     1     1     1     1     1     1     1     1     1     1     1     1     1     1     1     1     1     1     1
          1     1     1     1     1     1     1     1     1     1     1     1     1     1     1     1     1     1     1     1
          1     1     1     1     1     1
  21      0     0     0     0     0     0     0     1     1     1     1     1     1     1     1     1     1     1     1     1
          1     1     1     1     1     1     1     1     1     1     1     1     1     1     1     1     1     1     1     1
          1     1     1     1     1     1     1     1     1     1     1     1     1     1     1     1     1     1     1     1
          1     1     1     1     1     1     1     1     1     1     1     1     1     1     1     1     1     1     1     1
          1     1     1     1     1     1     1     1     1     1     1     1     1     1     1     1     1     1     1     1
          1     1     1     1     1     1     1     1     1     1     1     1     1     1     1     1     1     1     1     1
          1     1     1     1     1     1     1     1     1     1     1     1     1     1     1     1     1     1     1     1
          1     1     1     1     1     1     1     1     1     1     1     1     1     1     1     1     1     1     1     1
          1     1     1     1     1     1     1     1     1     1     1     1     1     1     1     1     1     1     1     1
          1     1     1     1     1     1
  22      0     0     0     0     0     0     0     1     1     1     1     1     1     1     1     1     1     1     1     1
          1     1     1     1     1     1     1     1     1     1     1     1     1     1     1     1     1     1     1     1
          1     1     1     1     1     1     1     1     1     1     1     1     1     1     1     1     1     1     1     1
          1     1     1     1     1     1     1     1     1     1     1     1     1     1     1     1     1     1     1     1
          1     1     1     1     1     1     1     1     1     1     1     1     1     1     1     1     1     1     1     1
          1     1     1     1     1     1     1     1     1     1     1     1     1     1     1     1     1     1     1     1
          1     1     1     1     1     1     1     1     1     1     1     1     1     1     1     1     1     1     1     1
          1     1     1     1     1     1     1     1     1     1     1     1     1     1     1     1     1     1     1     1
          1     1     1     1     1     1     1     1     1     1     1     1     1     1     1     1     1     1     1     1
          1     1     1     1     1     1
  23      0     0     0     0     0     0     0     1     1     1     1     1     1     1     1     1     1     1     1     1
          1     1     1     1     1     1     1     1     1     1     1     1     1     1     1     1     1     1     1     1
          1     1     1     1     1     1     1     1     1     1     1     1     1     1     1     1     1     1     1     1
          1     1     1     1     1     1     1     1     1     1     1     1     1     1     1     1     1     1     1     1
          1     1     1     1     1     1     1     1     1     1     1     1     1     1     1     1     1     1     1     1
          1     1     1     1     1     1     1     1     1     1     1     1     1     1     1     1     1     1     1     1
          1     1     1     1     1     1     1     1     1     1     1     1     1     1     1     1     1     1     1     1
          1     1     1     1     1     1     1     1     1     1     1     1     1     1     1     1     1     1     1     1
          1     1     1     1     1     1     1     1     1     1     1     1     1     1     1     1     1     1     1     1
          1     1     1     1     1     1
  24      0     0     0     0     0     0     0     1     1     1     1     1     1     1     1     1     1     1     1     1
          1     1     1     1     1     1     1     1     1     1     1     1     1     1     1     1     1     1     1     1
          1     1     1     1     1     1     1     1     1     1     1     1     1     1     1     1     1     1     1     1
          1     1     1     1     1     1     1     1     1     1     1     1     1     1     1     1     1     1     1     1
          1     1     1     1     1     1     1     1     1     1     1     1     1     1     1     1     1     1     1     1
          1     1     1     1     1     1     1     1     1     1     1     1     1     1     1     1     1     1     1     1
          1     1     1     1     1     1     1     1     1     1     1     1     1     1     1     1     1     1     1     1
          1     1     1     1     1     1     1     1     1     1     1     1     1     1     1     1     1     1     1     1
          1     1     1     1     1     1     1     1     1     1     1     1     1     1     1     1     1     1     1     1
          1     1     1     1     1     1
  25      0     0     0     0     0     0     0     0     1     1     1     1     1     1     1     1     1     1     1     1
          1     1     1     1     1     1     1     1     1     1     1     1     1     1     1     1     1     1     1     1
          1     1     1     1     1     1     1     1     1     1     1     1     1     1     1     1     1     1     1     1
          1     1     1     1     1     1     1     1     1     1     1     1     1     1     1     1     1     1     1     1
          1     1     1     1     1     1     1     1     1     1     1     1     1     1     1     1     1     1     1     1
          1     1     1     1     1     1     1     1     1     1     1     1     1     1     1     1     1     1     1     1
          1     1     1     1     1     1     1     1     1     1     1     1     1     1     1     1     1     1     1     1
          1     1     1     1     1     1     1     1     1     1     1     1     1     1     1     1     1     1     1     1
          1     1     1     1     1     1     1     1     1     1     1     1     1     1     1     1     1     1     1     1
          1     1     1     1     1     1
  26      0     0     0     0     0     0     0     0     1     1     1     1     1     1     1     1     1     1     1     1
          1     1     1     1     1     1     1     1     1     1     1     1     1     1     1     1     1     1     1     1
          1     1     1     1     1     1     1     1     1     1     1     1     1     1     1     1     1     1     1     1
          1     1     1     1     1     1     1     1     1     1     1     1     1     1     1     1     1     1     1     1
          1     1     1     1     1     1     1     1     1     1     1     1     1     1     1     1     1     1     1     1
          1     1     1     1     1     1     1     1     1     1     1     1     1     1     1     1     1     1     1     1
          1     1     1     1     1     1     1     1     1     1     1     1     1     1     1     1     1     1     1     1
          1     1     1     1     1     1     1     1     1     1     1     1     1     1     1     1     1     1     1     1
          1     1     1     1     1     1     1     1     1     1     1     1     1     1     1     1     1     1     1     1
          1     1     1     1     1     1
  27      0     0     0     0     0     0     0     0     1     1     1     1     1     1     1     1     1     1     1     1
          1     1     1     1     1     1     1     1     1     1     1     1     1     1     1     1     1     1     1     1
          1     1     1     1     1     1     1     1     1     1     1     1     1     1     1     1     1     1     1     1
          1     1     1     1     1     1     1     1     1     1     1     1     1     1     1     1     1     1     1     1
          1     1     1     1     1     1     1     1     1     1     1     1     1     1     1     1     1     1     1     1
          1     1     1     1     1     1     1     1     1     1     1     1     1     1     1     1     1     1     1     1
          1     1     1     1     1     1     1     1     1     1     1     1     1     1     1     1     1     1     1     1
          1     1     1     1     1     1     1     1     1     1     1     1     1     1     1     1     1     1     1     1
          1     1     1     1     1     1     1     1     1     1     1     1     1     1     1     1     1     1     1     1
          1     1     1     1     1     1
  28      0     0     0     0     0     0     0     0     1     1     1     1     1     1     1     1     1     1     1     1
          1     1     1     1     1     1     1     1     1     1     1     1     1     1     1     1     1     1     1     1
          1     1     1     1     1     1     1     1     1     1     1     1     1     1     1     1     1     1     1     1
          1     1     1     1     1     1     1     1     1     1     1     1     1     1     1     1     1     1     1     1
          1     1     1     1     1     1     1     1     1     1     1     1     1     1     1     1     1     1     1     1
          1     1     1     1     1     1     1     1     1     1     1     1     1     1     1     1     1     1     1     1
          1     1     1     1     1     1     1     1     1     1     1     1     1     1     1     1     1     1     1     1
          1     1     1     1     1     1     1     1     1     1     1     1     1     1     1     1     1     1     1     1
          1     1     1     1     1     1     1     1     1     1     1     1     1     1     1     1     1     1     1     1
          1     1     1     1     1     1
  29      0     0     0     0     0     0     0     0     1     1     1     1     1     1     1     1     1     1     1     1
          1     1     1     1     1     1     1     1     1     1     1     1     1     1     1     1     1     1     1     1
          1     1     1     1     1     1     1     1     1     1     1     1     1     1     1     1     1     1     1     1
          1     1     1     1     1     1     1     1     1     1     1     1     1     1     1     1     1     1     1     1
          1     1     1     1     1     1     1     1     1     1     1     1     1     1     1     1     1     1     1     1
          1     1     1     1     1     1     1     1     1     1     1     1     1     1     1     1     1     1     1     1
          1     1     1     1     1     1     1     1     1     1     1     1     1     1     1     1     1     1     1     1
          1     1     1     1     1     1     1     1     1     1     1     1     1     1     1     1     1     1     1     1
          1     1     1     1     1     1     1     1     1     1     1     1     1     1     1     1     1     1     1     1
          1     1     1     1     1     1
  30      0     0     0     0     0     0     0     0     1     1     1     1     1     1     1     1     1     1     1     1
          1     1     1     1     1     1     1     1     1     1     1     1     1     1     1     1     1     1     1     1
          1     1     1     1     1     1     1     1     1     1     1     1     1     1     1     1     1     1     1     1
          1     1     1     1     1     1     1     1     1     1     1     1     1     1     1     1     1     1     1     1
          1     1     1     1     1     1     1     1     1     1     1     1     1     1     1     1     1     1     1     1
          1     1     1     1     1     1     1     1     1     1     1     1     1     1     1     1     1     1     1     1
          1     1     1     1     1     1     1     1     1     1     1     1     1     1     1     1     1     1     1     1
          1     1     1     1     1     1     1     1     1     1     1     1     1     1     1     1     1     1     1     1
          1     1     1     1     1     1     1     1     1     1     1     1     1     1     1     1     1     1     1     1
          1     1     1     1     1     1
  31      0     0     0     0     0     0     0     0     0     1     1     1     1     1     1     1     1     1     1     1
          1     1     1     1     1     1     1     1     1     1     1     1     1     1     1     1     1     1     1     1
          1     1     1     1     1     1     1     1     1     1     1     1     1     1     1     1     1     1     1     1
          1     1     1     1     1     1     1     1     1     1     1     1     1     1     1     1     1     1     1     1
          1     1     1     1     1     1     1     1     1     1     1     1     1     1     1     1     1     1     1     1
          1     1     1     1     1     1     1     1     1     1     1     1     1     1     1     1     1     1     1     1
          1     1     1     1     1     1     1     1     1     1     1     1     1     1     1     1     1     1     1     1
          1     1     1     1     1     1     1     1     1     1     1     1     1     1     1     1     1     1     1     1
          1     1     1     1     1     1     1     1     1     1     1     1     1     1     1     1     1     1     1     1
          1     1     1     1     1     1
  32      0     0     0     0     0     0     0     0     0     1     1     1     1     1     1     1     1     1     1     1
          1     1     1     1     1     1     1     1     1     1     1     1     1     1     1     1     1     1     1     1
          1     1     1     1     1     1     1     1     1     1     1     1     1     1     1     1     1     1     1     1
          1     1     1     1     1     1     1     1     1     1     1     1     1     1     1     1     1     1     1     1
          1     1     1     1     1     1     1     1     1     1     1     1     1     1     1     1     1     1     1     1
          1     1     1     1     1     1     1     1     1     1     1     1     1     1     1     1     1     1     1     1
          1     1     1     1     1     1     1     1     1     1     1     1     1     1     1     1     1     1     1     1
          1     1     1     1     1     1     1     1     1     1     1     1     1     1     1     1     1     1     1     1
          1     1     1     1     1     1     1     1     1     1     1     1     1     1     1     1     1     1     1     1
          1     1     1     1     1     1
  33      0     0     0     0     0     0     0     0     0     1     1     1     1     1     1     1     1     1     1     1
          1     1     1     1     1     1     1     1     1     1     1     1     1     1     1     1     1     1     1     1
          1     1     1     1     1     1     1     1     1     1     1     1     1     1     1     1     1     1     1     1
          1     1     1     1     1     1     1     1     1     1     1     1     1     1     1     1     1     1     1     1
          1     1     1     1     1     1     1     1     1     1     1     1     1     1     1     1     1     1     1     1
          1     1     1     1     1     1     1     1     1     1     1     1     1     1     1     1     1     1     1     1
          1     1     1     1     1     1     1     1     1     1     1     1     1     1     1     1     1     1     1     1
          1     1     1     1     1     1     1     1     1     1     1     1     1     1     1     1     1     1     1     1
          1     1     1     1     1     1     1     1     1     1     1     1     1     1     1     1     1     1     1     1
          1     1     1     1     1     1
  34      0     0     0     0     0     0     0     0     0     1     1     1     1     1     1     1     1     1     1     1
          1     1     1     1     1     1     1     1     1     1     1     1     1     1     1     1     1     1     1     1
          1     1     1     1     1     1     1     1     1     1     1     1     1     1     1     1     1     1     1     1
          1     1     1     1     1     1     1     1     1     1     1     1     1     1     1     1     1     1     1     1
          1     1     1     1     1     1     1     1     1     1     1     1     1     1     1     1     1     1     1     1
          1     1     1     1     1     1     1     1     1     1     1     1     1     1     1     1     1     1     1     1
          1     1     1     1     1     1     1     1     1     1     1     1     1     1     1     1     1     1     1     1
          1     1     1     1     1     1     1     1     1     1     1     1     1     1     1     1     1     1     1     1
          1     1     1     1     1     1     1     1     1     1     1     1     1     1     1     1     1     1     1     1
          1     1     1     1     1     1
  35      0     0     0     0     0     0     0     0     0     1     1     1     1     1     1     1     1     1     1     1
          1     1     1     1     1     1     1     1     1     1     1     1     1     1     1     1     1     1     1     1
          1     1     1     1     1     1     1     1     1     1     1     1     1     1     1     1     1     1     1     1
          1     1     1     1     1     1     1     1     1     1     1     1     1     1     1     1     1     1     1     1
          1     1     1     1     1     1     1     1     1     1     1     1     1     1     1     1     1     1     1     1
          1     1     1     1     1     1     1     1     1     1     1     1     1     1     1     1     1     1     1     1
          1     1     1     1     1     1     1     1     1     1     1     1     1     1     1     1     1     1     1     1
          1     1     1     1     1     1     1     1     1     1     1     1     1     1     1     1     1     1     1     1
          1     1     1     1     1     1     1     1     1     1     1     1     1     1     1     1     1     1     1     1
          1     1     1     1     1     1
  36      0     0     0     0     0     0     0     0     0     1     1     1     1     1     1     1     1     1     1     1
          1     1     1     1     1     1     1     1     1     1     1     1     1     1     1     1     1     1     1     1
          1     1     1     1     1     1     1     1     1     1     1     1     1     1     1     1     1     1     1     1
          1     1     1     1     1     1     1     1     1     1     1     1     1     1     1     1     1     1     1     1
          1     1     1     1     1     1     1     1     1     1     1     1     1     1     1     1     1     1     1     1
          1     1     1     1     1     1     1     1     1     1     1     1     1     1     1     1     1     1     1     1
          1     1     1     1     1     1     1     1     1     1     1     1     1     1     1     1     1     1     1     1
          1     1     1     1     1     1     1     1     1     1     1     1     1     1     1     1     1     1     1     1
          1     1     1     1     1     1     1     1     1     1     1     1     1     1     1     1     1     1     1     1
          1     1     1     1     1     1
  37      0     0     0     0     0     0     0     0     0     1     1     1     1     1     1     1     1     1     1     1
          1     1     1     1     1     1     1     1     1     1     1     1     1     1     1     1     1     1     1     1
          1     1     1     1     1     1     1     1     1     1     1     1     1     1     1     1     1     1     1     1
          1     1     1     1     1     1     1     1     1     1     1     1     1     1     1     1     1     1     1     1
          1     1     1     1     1     1     1     1     1     1     1     1     1     1     1     1     1     1     1     1
          1     1     1     1     1     1     1     1     1     1     1     1     1     1     1     1     1     1     1     1
          1     1     1     1     1     1     1     1     1     1     1     1     1     1     1     1     1     1     1     1
          1     1     1     1     1     1     1     1     1     1     1     1     1     1     1     1     1     1     1     1
          1     1     1     1     1     1     1     1     1     1     1     1     1     1     1     1     1     1     1     1
          1     1     1     1     1     1
  38      0     0     0     0     0     0     0     0     0     0     1     1     1     1     1     1     1     1     1     1
          1     1     1     1     1     1     1     1     1     1     1     1     1     1     1     1     1     1     1     1
          1     1     1     1     1     1     1     1     1     1     1     1     1     1     1     1     1     1     1     1
          1     1     1     1     1     1     1     1     1     1     1     1     1     1     1     1     1     1     1     1
          1     1     1     1     1     1     1     1     1     1     1     1     1     1     1     1     1     1     1     1
          1     1     1     1     1     1     1     1     1     1     1     1     1     1     1     1     1     1     1     1
          1     1     1     1     1     1     1     1     1     1     1     1     1     1     1     1     1     1     1     1
          1     1     1     1     1     1     1     1     1     1     1     1     1     1     1     1     1     1     1     1
          1     1     1     1     1     1     1     1     1     1     1     1     1     1     1     1     1     1     1     1
          1     1     1     1     1     1
  39      0     0     0     0     0     0     0     0     0     0     1     1     1     1     1     1     1     1     1     1
          1     1     1     1     1     1     1     1     1     1     1     1     1     1     1     1     1     1     1     1
          1     1     1     1     1     1     1     1     1     1     1     1     1     1     1     1     1     1     1     1
          1     1     1     1     1     1     1     1     1     1     1     1     1     1     1     1     1     1     1     1
          1     1     1     1     1     1     1     1     1     1     1     1     1     1     1     1     1     1     1     1
          1     1     1     1     1     1     1     1     1     1     1     1     1     1     1     1     1     1     1     1
          1     1     1     1     1     1     1     1     1     1     1     1     1     1     1     1     1     1     1     1
          1     1     1     1     1     1     1     1     1     1     1     1     1     1     1     1     1     1     1     1
          1     1     1     1     1     1     1     1     1     1     1     1     1     1     1     1     1     1     1     1
          1     1     1     1     1     1
  40      0     0     0     0     0     0     0     0     0     0     1     1     1     1     1     1     1     1     1     1
          1     1     1     1     1     1     1     1     1     1     1     1     1     1     1     1     1     1     1     1
          1     1     1     1     1     1     1     1     1     1     1     1     1     1     1     1     1     1     1     1
          1     1     1     1     1     1     1     1     1     1     1     1     1     1     1     1     1     1     1     1
          1     1     1     1     1     1     1     1     1     1     1     1     1     1     1     1     1     1     1     1
          1     1     1     1     1     1     1     1     1     1     1     1     1     1     1     1     1     1     1     1
          1     1     1     1     1     1     1     1     1     1     1     1     1     1     1     1     1     1     1     1
          1     1     1     1     1     1     1     1     1     1     1     1     1     1     1     1     1     1     1     1
          1     1     1     1     1     1     1     1     1     1     1     1     1     1     1     1     1     1     1     1
          1     1     1     1     1     1
  41      0     0     0     0     0     0     0     0     0     0     1     1     1     1     1     1     1     1     1     1
          1     1     1     1     1     1     1     1     1     1     1     1     1     1     1     1     1     1     1     1
          1     1     1     1     1     1     1     1     1     1     1     1     1     1     1     1     1     1     1     1
          1     1     1     1     1     1     1     1     1     1     1     1     1     1     1     1     1     1     1     1
          1     1     1     1     1     1     1     1     1     1     1     1     1     1     1     1     1     1     1     1
          1     1     1     1     1     1     1     1     1     1     1     1     1     1     1     1     1     1     1     1
          1     1     1     1     1     1     1     1     1     1     1     1     1     1     1     1     1     1     1     1
          1     1     1     1     1     1     1     1     1     1     1     1     1     1     1     1     1     1     1     1
          1     1     1     1     1     1     1     1     1     1     1     1     1     1     1     1     1     1     1     1
          1     1     1     1     1     1
  42      0     0     0     0     0     0     0     0     0     0     1     1     1     1     1     1     1     1     1     1
          1     1     1     1     1     1     1     1     1     1     1     1     1     1     1     1     1     1     1     1
          1     1     1     1     1     1     1     1     1     1     1     1     1     1     1     1     1     1     1     1
          1     1     1     1     1     1     1     1     1     1     1     1     1     1     1     1     1     1     1     1
          1     1     1     1     1     1     1     1     1     1     1     1     1     1     1     1     1     1     1     1
          1     1     1     1     1     1     1     1     1     1     1     1     1     1     1     1     1     1     1     1
          1     1     1     1     1     1     1     1     1     1     1     1     1     1     1     1     1     1     1     1
          1     1     1     1     1     1     1     1     1     1     1     1     1     1     1     1     1     1     1     1
          1     1     1     1     1     1     1     1     1     1     1     1     1     1     1     1     1     1     1     1
          1     1     1     1     1     1
  43      0     0     0     0     0     0     0     0     0     0     0     1     1     1     1     1     1     1     1     1
          1     1     1     1     1     1     1     1     1     1     1     1     1     1     1     1     1     1     1     1
          1     1     1     1     1     1     1     1     1     1     1     1     1     1     1     1     1     1     1     1
          1     1     1     1     1     1     1     1     1     1     1     1     1     1     1     1     1     1     1     1
          1     1     1     1     1     1     1     1     1     1     1     1     1     1     1     1     1     1     1     1
          1     1     1     1     1     1     1     1     1     1     1     1     1     1     1     1     1     1     1     1
          1     1     1     1     1     1     1     1     1     1     1     1     1     1     1     1     1     1     1     1
          1     1     1     1     1     1     1     1     1     1     1     1     1     1     1     1     1     1     1     1
          1     1     1     1     1     1     1     1     1     1     1     1     1     1     1     1     1     1     1     1
          1     1     1     1     1     1
  44      0     0     0     0     0     0     0     0     0     0     0     1     1     1     1     1     1     1     1     1
          1     1     1     1     1     1     1     1     1     1     1     1     1     1     1     1     1     1     1     1
          1     1     1     1     1     1     1     1     1     1     1     1     1     1     1     1     1     1     1     1
          1     1     1     1     1     1     1     1     1     1     1     1     1     1     1     1     1     1     1     1
          1     1     1     1     1     1     1     1     1     1     1     1     1     1     1     1     1     1     1     1
          1     1     1     1     1     1     1     1     1     1     1     1     1     1     1     1     1     1     1     1
          1     1     1     1     1     1     1     1     1     1     1     1     1     1     1     1     1     1     1     1
          1     1     1     1     1     1     1     1     1     1     1     1     1     1     1     1     1     1     1     1
          1     1     1     1     1     1     1     1     1     1     1     1     1     1     1     1     1     1     1     1
          1     1     1     1     1     1
  45      0     0     0     0     0     0     0     0     0     0     0     1     1     1     1     1     1     1     1     1
          1     1     1     1     1     1     1     1     1     1     1     1     1     1     1     1     1     1     1     1
          1     1     1     1     1     1     1     1     1     1     1     1     1     1     1     1     1     1     1     1
          1     1     1     1     1     1     1     1     1     1     1     1     1     1     1     1     1     1     1     1
          1     1     1     1     1     1     1     1     1     1     1     1     1     1     1     1     1     1     1     1
          1     1     1     1     1     1     1     1     1     1     1     1     1     1     1     1     1     1     1     1
          1     1     1     1     1     1     1     1     1     1     1     1     1     1     1     1     1     1     1     1
          1     1     1     1     1     1     1     1     1     1     1     1     1     1     1     1     1     1     1     1
          1     1     1     1     1     1     1     1     1     1     1     1     1     1     1     1     1     1     1     1
          1     1     1     1     1     1
  46      0     0     0     0     0     0     0     0     0     0     0     1     1     1     1     1     1     1     1     1
          1     1     1     1     1     1     1     1     1     1     1     1     1     1     1     1     1     1     1     1
          1     1     1     1     1     1     1     1     1     1     1     1     1     1     1     1     1     1     1     1
          1     1     1     1     1     1     1     1     1     1     1     1     1     1     1     1     1     1     1     1
          1     1     1     1     1     1     1     1     1     1     1     1     1     1     1     1     1     1     1     1
          1     1     1     1     1     1     1     1     1     1     1     1     1     1     1     1     1     1     1     1
          1     1     1     1     1     1     1     1     1     1     1     1     1     1     1     1     1     1     1     1
          1     1     1     1     1     1     1     1     1     1     1     1     1     1     1     1     1     1     1     1
          1     1     1     1     1     1     1     1     1     1     1     1     1     1     1     1     1     1     1     1
          1     1     1     1     1     1
  47      0     0     0     0     0     0     0     0     0     0     0     1     1     1     1     1     1     1     1     1
          1     1     1     1     1     1     1     1     1     1     1     1     1     1     1     1     1     1     1     1
          1     1     1     1     1     1     1     1     1     1     1     1     1     1     1     1     1     1     1     1
          1     1     1     1     1     1     1     1     1     1     1     1     1     1     1     1     1     1     1     1
          1     1     1     1     1     1     1     1     1     1     1     1     1     1     1     1     1     1     1     1
          1     1     1     1     1     1     1     1     1     1     1     1     1     1     1     1     1     1     1     1
          1     1     1     1     1     1     1     1     1     1     1     1     1     1     1     1     1     1     1     1
          1     1     1     1     1     1     1     1     1     1     1     1     1     1     1     1     1     1     1     1
          1     1     1     1     1     1     1     1     1     1     1     1     1     1     1     1     1     1     1     1
          1     1     1     1     1     1
  48      0     0     0     0     0     0     0     0     0     0     0     0     1     1     1     1     1     1     1     1
          1     1     1     1     1     1     1     1     1     1     1     1     1     1     1     1     1     1     1     1
          1     1     1     1     1     1     1     1     1     1     1     1     1     1     1     1     1     1     1     1
          1     1     1     1     1     1     1     1     1     1     1     1     1     1     1     1     1     1     1     1
          1     1     1     1     1     1     1     1     1     1     1     1     1     1     1     1     1     1     1     1
          1     1     1     1     1     1     1     1     1     1     1     1     1     1     1     1     1     1     1     1
          1     1     1     1     1     1     1     1     1     1     1     1     1     1     1     1     1     1     1     1
          1     1     1     1     1     1     1     1     1     1     1     1     1     1     1     1     1     1     1     1
          1     1     1     1     1     1     1     1     1     1     1     1     1     1     1     1     1     1     1     1
          1     1     1     1     1     1
  49      0     0     0     0     0     0     0     0     0     0     0     0     1     1     1     1     1     1     1     1
          1     1     1     1     1     1     1     1     1     1     1     1     1     1     1     1     1     1     1     1
          1     1     1     1     1     1     1     1     1     1     1     1     1     1     1     1     1     1     1     1
          1     1     1     1     1     1     1     1     1     1     1     1     1     1     1     1     1     1     1     1
          1     1     1     1     1     1     1     1     1     1     1     1     1     1     1     1     1     1     1     1
          1     1     1     1     1     1     1     1     1     1     1     1     1     1     1     1     1     1     1     1
          1     1     1     1     1     1     1     1     1     1     1     1     1     1     1     1     1     1     1     1
          1     1     1     1     1     1     1     1     1     1     1     1     1     1     1     1     1     1     1     1
          1     1     1     1     1     1     1     1     1     1     1     1     1     1     1     1     1     1     1     1
          1     1     1     1     1     1
  50      0     0     0     0     0     0     0     0     0     0     0     0     1     1     1     1     1     1     1     1
          1     1     1     1     1     1     1     1     1     1     1     1     1     1     1     1     1     1     1     1
          1     1     1     1     1     1     1     1     1     1     1     1     1     1     1     1     1     1     1     1
          1     1     1     1     1     1     1     1     1     1     1     1     1     1     1     1     1     1     1     1
          1     1     1     1     1     1     1     1     1     1     1     1     1     1     1     1     1     1     1     1
          1     1     1     1     1     1     1     1     1     1     1     1     1     1     1     1     1     1     1     1
          1     1     1     1     1     1     1     1     1     1     1     1     1     1     1     1     1     1     1     1
          1     1     1     1     1     1     1     1     1     1     1     1     1     1     1     1     1     1     1     1
          1     1     1     1     1     1     1     1     1     1     1     1     1     1     1     1     1     1     1     1
          1     1     1     1     1     1
  51      0     0     0     0     0     0     0     0     0     0     0     0     1     1     1     1     1     1     1     1
          1     1     1     1     1     1     1     1     1     1     1     1     1     1     1     1     1     1     1     1
          1     1     1     1     1     1     1     1     1     1     1     1     1     1     1     1     1     1     1     1
          1     1     1     1     1     1     1     1     1     1     1     1     1     1     1     1     1     1     1     1
          1     1     1     1     1     1     1     1     1     1     1     1     1     1     1     1     1     1     1     1
          1     1     1     1     1     1     1     1     1     1     1     1     1     1     1     1     1     1     1     1
          1     1     1     1     1     1     1     1     1     1     1     1     1     1     1     1     1     1     1     1
          1     1     1     1     1     1     1     1     1     1     1     1     1     1     1     1     1     1     1     1
          1     1     1     1     1     1     1     1     1     1     1     1     1     1     1     1     1     1     1     1
          1     1     1     1     1     1
  52      0     0     0     0     0     0     0     0     0     0     0     0     1     1     1     1     1     1     1     1
          1     1     1     1     1     1     1     1     1     1     1     1     1     1     1     1     1     1     1     1
          1     1     1     1     1     1     1     1     1     1     1     1     1     1     1     1     1     1     1     1
          1     1     1     1     1     1     1     1     1     1     1     1     1     1     1     1     1     1     1     1
          1     1     1     1     1     1     1     1     1     1     1     1     1     1     1     1     1     1     1     1
          1     1     1     1     1     1     1     1     1     1     1     1     1     1     1     1     1     1     1     1
          1     1     1     1     1     1     1     1     1     1     1     1     1     1     1     1     1     1     1     1
          1     1     1     1     1     1     1     1     1     1     1     1     1     1     1     1     1     1     1     1
          1     1     1     1     1     1     1     1     1     1     1     1     1     1     1     1     1     1     1     1
          1     1     1     1     1     1
  53      0     0     0     0     0     0     0     0     0     0     0     0     0     1     1     1     1     1     1     1
          1     1     1     1     1     1     1     1     1     1     1     1     1     1     1     1     1     1     1     1
          1     1     1     1     1     1     1     1     1     1     1     1     1     1     1     1     1     1     1     1
          1     1     1     1     1     1     1     1     1     1     1     1     1     1     1     1     1     1     1     1
          1     1     1     1     1     1     1     1     1     1     1     1     1     1     1     1     1     1     1     1
          1     1     1     1     1     1     1     1     1     1     1     1     1     1     1     1     1     1     1     1
          1     1     1     1     1     1     1     1     1     1     1     1     1     1     1     1     1     1     1     1
          1     1     1     1     1     1     1     1     1     1     1     1     1     1     1     1     1     1     1     1
          1     1     1     1     1     1     1     1     1     1     1     1     1     1     1     1     1     1     1     1
          1     1     1     1     1     1
  54      0     0     0     0     0     0     0     0     0     0     0     0     0     1     1     1     1     1     1     1
          1     1     1     1     1     1     1     1     1     1     1     1     1     1     1     1     1     1     1     1
          1     1     1     1     1     1     1     1     1     1     1     1     1     1     1     1     1     1     1     1
          1     1     1     1     1     1     1     1     1     1     1     1     1     1     1     1     1     1     1     1
          1     1     1     1     1     1     1     1     1     1     1     1     1     1     1     1     1     1     1     1
          1     1     1     1     1     1     1     1     1     1     1     1     1     1     1     1     1     1     1     1
          1     1     1     1     1     1     1     1     1     1     1     1     1     1     1     1     1     1     1     1
          1     1     1     1     1     1     1     1     1     1     1     1     1     1     1     1     1     1     1     1
          1     1     1     1     1     1     1     1     1     1     1     1     1     1     1     1     1     1     1     1
          1     1     1     1     1     1
  55      0     0     0     0     0     0     0     0     0     0     0     0     0     1     1     1     1     1     1     1
          1     1     1     1     1     1     1     1     1     1     1     1     1     1     1     1     1     1     1     1
          1     1     1     1     1     1     1     1     1     1     1     1     1     1     1     1     1     1     1     1
          1     1     1     1     1     1     1     1     1     1     1     1     1     1     1     1     1     1     1     1
          1     1     1     1     1     1     1     1     1     1     1     1     1     1     1     1     1     1     1     1
          1     1     1     1     1     1     1     1     1     1     1     1     1     1     1     1     1     1     1     1
          1     1     1     1     1     1     1     1     1     1     1     1     1     1     1     1     1     1     1     1
          1     1     1     1     1     1     1     1     1     1     1     1     1     1     1     1     1     1     1     1
          1     1     1     1     1     1     1     1     1     1     1     1     1     1     1     1     1     1     1     1
          1     1     1     1     1     1
  56      0     0     0     0     0     0     0     0     0     0     0     0     0     1     1     1     1     1     1     1
          1     1     1     1     1     1     1     1     1     1     1     1     1     1     1     1     1     1     1     1
          1     1     1     1     1     1     1     1     1     1     1     1     1     1     1     1     1     1     1     1
          1     1     1     1     1     1     1     1     1     1     1     1     1     1     1     1     1     1     1     1
          1     1     1     1     1     1     1     1     1     1     1     1     1     1     1     1     1     1     1     1
          1     1     1     1     1     1     1     1     1     1     1     1     1     1     1     1     1     1     1     1
          1     1     1     1     1     1     1     1     1     1     1     1     1     1     1     1     1     1     1     1
          1     1     1     1     1     1     1     1     1     1     1     1     1     1     1     1     1     1     1     1
          1     1     1     1     1     1     1     1     1     1     1     1     1     1     1     1     1     1     1     1
          1     1     1     1     1     1
  57      0     0     0     0     0     0     0     0     0     0     0     0     0     1     1     1     1     1     1     1
          1     1     1     1     1     1     1     1     1     1     1     1     1     1     1     1     1     1     1     1
          1     1     1     1     1     1     1     1     1     1     1     1     1     1     1     1     1     1     1     1
          1     1     1     1     1     1     1     1     1     1     1     1     1     1     1     1     1     1     1     1
          1     1     1     1     1     1     1     1     1     1     1     1     1     1     1     1     1     1     1     1
          1     1     1     1     1     1     1     1     1     1     1     1     1     1     1     1     1     1     1     1
          1     1     1     1     1     1     1     1     1     1     1     1     1     1     1     1     1     1     1     1
          1     1     1     1     1     1     1     1     1     1     1     1     1     1     1     1     1     1     1     1
          1     1     1     1     1     1     1     1     1     1     1     1     1     1     1     1     1     1     1     1
          1     1     1     1     1     1
  58      0     0     0     0     0     0     0     0     0     0     0     0     0     1     1     1     1     1     1     1
          1     1     1     1     1     1     1     1     1     1     1     1     1     1     1     1     1     1     1     1
          1     1     1     1     1     1     1     1     1     1     1     1     1     1     1     1     1     1     1     1
          1     1     1     1     1     1     1     1     1     1     1     1     1     1     1     1     1     1     1     1
          1     1     1     1     1     1     1     1     1     1     1     1     1     1     1     1     1     1     1     1
          1     1     1     1     1     1     1     1     1     1     1     1     1     1     1     1     1     1     1     1
          1     1     1     1     1     1     1     1     1     1     1     1     1     1     1     1     1     1     1     1
          1     1     1     1     1     1     1     1     1     1     1     1     1     1     1     1     1     1     1     1
          1     1     1     1     1     1     1     1     1     1     1     1     1     1     1     1     1     1     1     1
          1     1     1     1     1     1
  59      0     0     0     0     0     0     0     0     0     0     0     0     0     0     1     1     1     1     1     1
          1     1     1     1     1     1     1     1     1     1     1     1     1     1     1     1     1     1     1     1
          1     1     1     1     1     1     1     1     1     1     1     1     1     1     1     1     1     1     1     1
          1     1     1     1     1     1     1     1     1     1     1     1     1     1     1     1     1     1     1     1
          1     1     1     1     1     1     1     1     1     1     1     1     1     1     1     1     1     1     1     1
          1     1     1     1     1     1     1     1     1     1     1     1     1     1     1     1     1     1     1     1
          1     1     1     1     1     1     1     1     1     1     1     1     1     1     1     1     1     1     1     1
          1     1     1     1     1     1     1     1     1     1     1     1     1     1     1     1     1     1     1     1
          1     1     1     1     1     1     1     1     1     1     1     1     1     1     1     1     1     1     1     1
          1     1     1     1     1     1
  60      0     0     0     0     0     0     0     0     0     0     0     0     0     0     1     1     1     1     1     1
          1     1     1     1     1     1     1     1     1     1     1     1     1     1     1     1     1     1     1     1
          1     1     1     1     1     1     1     1     1     1     1     1     1     1     1     1     1     1     1     1
          1     1     1     1     1     1     1     1     1     1     1     1     1     1     1     1     1     1     1     1
          1     1     1     1     1     1     1     1     1     1     1     1     1     1     1     1     1     1     1     1
          1     1     1     1     1     1     1     1     1     1     1     1     1     1     1     1     1     1     1     1
          1     1     1     1     1     1     1     1     1     1     1     1     1     1     1     1     1     1     1     1
          1     1     1     1     1     1     1     1     1     1     1     1     1     1     1     1     1     1     1     1
          1     1     1     1     1     1     1     1     1     1     1     1     1     1     1     1     1     1     1     1
          1     1     1     1     1     1
  61      0     0     0     0     0     0     0     0     0     0     0     0     0     0     1     1     1     1     1     1
          1     1     1     1     1     1     1     1     1     1     1     1     1     1     1     1     1     1     1     1
          1     1     1     1     1     1     1     1     1     1     1     1     1     1     1     1     1     1     1     1
          1     1     1     1     1     1     1     1     1     1     1     1     1     1     1     1     1     1     1     1
          1     1     1     1     1     1     1     1     1     1     1     1     1     1     1     1     1     1     1     1
          1     1     1     1     1     1     1     1     1     1     1     1     1     1     1     1     1     1     1     1
          1     1     1     1     1     1     1     1     1     1     1     1     1     1     1     1     1     1     1     1
          1     1     1     1     1     1     1     1     1     1     1     1     1     1     1     1     1     1     1     1
          1     1     1     1     1     1     1     1     1     1     1     1     1     1     1     1     1     1     1     1
          1     1     1     1     1     1
  62      0     0     0     0     0     0     0     0     0     0     0     0     0     0     1     1     1     1     1     1
          1     1     1     1     1     1     1     1     1     1     1     1     1     1     1     1     1     1     1     1
          1     1     1     1     1     1     1     1     1     1     1     1     1     1     1     1     1     1     1     1
          1     1     1     1     1     1     1     1     1     1     1     1     1     1     1     1     1     1     1     1
          1     1     1     1     1     1     1     1     1     1     1     1     1     1     1     1     1     1     1     1
          1     1     1     1     1     1     1     1     1     1     1     1     1     1     1     1     1     1     1     1
          1     1     1     1     1     1     1     1     1     1     1     1     1     1     1     1     1     1     1     1
          1     1     1     1     1     1     1     1     1     1     1     1     1     1     1     1     1     1     1     1
          1     1     1     1     1     1     1     1     1     1     1     1     1     1     1     1     1     1     1     1
          1     1     1     1     1     1
  63      0     0     0     0     0     0     0     0     0     0     0     0     0     0     1     1     1     1     1     1
          1     1     1     1     1     1     1     1     1     1     1     1     1     1     1     1     1     1     1     1
          1     1     1     1     1     1     1     1     1     1     1     1     1     1     1     1     1     1     1     1
          1     1     1     1     1     1     1     1     1     1     1     1     1     1     1     1     1     1     1     1
          1     1     1     1     1     1     1     1     1     1     1     1     1     1     1     1     1     1     1     1
          1     1     1     1     1     1     1     1     1     1     1     1     1     1     1     1     1     1     1     1
          1     1     1     1     1     1     1     1     1     1     1     1     1     1     1     1     1     1     1     1
          1     1     1     1     1     1     1     1     1     1     1     1     1     1     1     1     1     1     1     1
          1     1     1     1     1     1     1     1     1     1     1     1     1     1     1     1     1     1     1     1
          1     1     1     1     1     1
  64      0     0     0     0     0     0     0     0     0     0     0     0     0     0     1     1     1     1     1     1
          1     1     1     1     1     1     1     1     1     1     1     1     1     1     1     1     1     1     1     1
          1     1     1     1     1     1     1     1     1     1     1     1     1     1     1     1     1     1     1     1
          1     1     1     1     1     1     1     1     1     1     1     1     1     1     1     1     1     1     1     1
          1     1     1     1     1     1     1     1     1     1     1     1     1     1     1     1     1     1     1     1
          1     1     1     1     1     1     1     1     1     1     1     1     1     1     1     1     1     1     1     1
          1     1     1     1     1     1     1     1     1     1     1     1     1     1     1     1     1     1     1     1
          1     1     1     1     1     1     1     1     1     1     1     1     1     1     1     1     1     1     1     1
          1     1     1     1     1     1     1     1     1     1     1     1     1     1     1     1     1     1     1     1
          1     1     1     1     1     1
  65      0     0     0     0     0     0     0     0     0     0     0     0     0     0     1     1     1     1     1     1
          1     1     1     1     1     1     1     1     1     1     1     1     1     1     1     1     1     1     1     1
          1     1     1     1     1     1     1     1     1     1     1     1     1     1     1     1     1     1     1     1
          1     1     1     1     1     1     1     1     1     1     1     1     1     1     1     1     1     1     1     1
          1     1     1     1     1     1     1     1     1     1     1     1     1     1     1     1     1     1     1     1
          1     1     1     1     1     1     1     1     1     1     1     1     1     1     1     1     1     1     1     1
          1     1     1     1     1     1     1     1     1     1     1     1     1     1     1     1     1     1     1     1
          1     1     1     1     1     1     1     1     1     1     1     1     1     1     1     1     1     1     1     1
          1     1     1     1     1     1     1     1     1     1     1     1     1     1     1     1     1     1     1     1
          1     1     1     1     1     1
  66      0     0     0     0     0     0     0     0     0     0     0     0     0     0     0     1     1     1     1     1
          1     1     1     1     1     1     1     1     1     1     1     1     1     1     1     1     1     1     1     1
          1     1     1     1     1     1     1     1     1     1     1     1     1     1     1     1     1     1     1     1
          1     1     1     1     1     1     1     1     1     1     1     1     1     1     1     1     1     1     1     1
          1     1     1     1     1     1     1     1     1     1     1     1     1     1     1     1     1     1     1     1
          1     1     1     1     1     1     1     1     1     1     1     1     1     1     1     1     1     1     1     1
          1     1     1     1     1     1     1     1     1     1     1     1     1     1     1     1     1     1     1     1
          1     1     1     1     1     1     1     1     1     1     1     1     1     1     1     1     1     1     1     1
          1     1     1     1     1     1     1     1     1     1     1     1     1     1     1     1     1     1     1     1
          1     1     1     1     1     1
  67      0     0     0     0     0     0     0     0     0     0     0     0     0     0     0     1     1     1     1     1
          1     1     1     1     1     1     1     1     1     1     1     1     1     1     1     1     1     1     1     1
          1     1     1     1     1     1     1     1     1     1     1     1     1     1     1     1     1     1     1     1
          1     1     1     1     1     1     1     1     1     1     1     1     1     1     1     1     1     1     1     1
          1     1     1     1     1     1     1     1     1     1     1     1     1     1     1     1     1     1     1     1
          1     1     1     1     1     1     1     1     1     1     1     1     1     1     1     1     1     1     1     1
          1     1     1     1     1     1     1     1     1     1     1     1     1     1     1     1     1     1     1     1
          1     1     1     1     1     1     1     1     1     1     1     1     1     1     1     1     1     1     1     1
          1     1     1     1     1     1     1     1     1     1     1     1     1     1     1     1     1     1     1     1
          1     1     1     1     1     1
  68      0     0     0     0     0     0     0     0     0     0     0     0     0     0     0     1     1     1     1     1
          1     1     1     1     1     1     1     1     1     1     1     1     1     1     1     1     1     1     1     1
          1     1     1     1     1     1     1     1     1     1     1     1     1     1     1     1     1     1     1     1
          1     1     1     1     1     1     1     1     1     1     1     1     1     1     1     1     1     1     1     1
          1     1     1     1     1     1     1     1     1     1     1     1     1     1     1     1     1     1     1     1
          1     1     1     1     1     1     1     1     1     1     1     1     1     1     1     1     1     1     1     1
          1     1     1     1     1     1     1     1     1     1     1     1     1     1     1     1     1     1     1     1
          1     1     1     1     1     1     1     1     1     1     1     1     1     1     1     1     1     1     1     1
          1     1     1     1     1     1     1     1     1     1     1     1     1     1     1     1     1     1     1     1
          1     1     1     1     1     1
  69      0     0     0     0     0     0     0     0     0     0     0     0     0     0     0     1     1     1     1     1
          1     1     1     1     1     1     1     1     1     1     1     1     1     1     1     1     1     1     1     1
          1     1     1     1     1     1     1     1     1     1     1     1     1     1     1     1     1     1     1     1
          1     1     1     1     1     1     1     1     1     1     1     1     1     1     1     1     1     1     1     1
          1     1     1     1     1     1     1     1     1     1     1     1     1     1     1     1     1     1     1     1
          1     1     1     1     1     1     1     1     1     1     1     1     1     1     1     1     1     1     1     1
          1     1     1     1     1     1     1     1     1     1     1     1     1     1     1     1     1     1     1     1
          1     1     1     1     1     1     1     1     1     1     1     1     1     1     1     1     1     1     1     1
          1     1     1     1     1     1     1     1     1     1     1     1     1     1     1     1     1     1     1     1
          1     1     1     1     1     1
  70      0     0     0     0     0     0     0     0     0     0     0     0     0     0     0     1     1     1     1     1
          1     1     1     1     1     1     1     1     1     1     1     1     1     1     1     1     1     1     1     1
          1     1     1     1     1     1     1     1     1     1     1     1     1     1     1     1     1     1     1     1
          1     1     1     1     1     1     1     1     1     1     1     1     1     1     1     1     1     1     1     1
          1     1     1     1     1     1     1     1     1     1     1     1     1     1     1     1     1     1     1     1
          1     1     1     1     1     1     1     1     1     1     1     1     1     1     1     1     1     1     1     1
          1     1     1     1     1     1     1     1     1     1     1     1     1     1     1     1     1     1     1     1
          1     1     1     1     1     1     1     1     1     1     1     1     1     1     1     1     1     1     1     1
          1     1     1     1     1     1     1     1     1     1     1     1     1     1     1     1     1     1     1     1
          1     1     1     1     1     1
  71      0     0     0     0     0     0     0     0     0     0     0     0     0     0     0     1     1     1     1     1
          1     1     1     1     1     1     1     1     1     1     1     1     1     1     1     1     1     1     1     1
          1     1     1     1     1     1     1     1     1     1     1     1     1     1     1     1     1     1     1     1
          1     1     1     1     1     1     1     1     1     1     1     1     1     1     1     1     1     1     1     1
          1     1     1     1     1     1     1     1     1     1     1     1     1     1     1     1     1     1     1     1
          1     1     1     1     1     1     1     1     1     1     1     1     1     1     1     1     1     1     1     1
          1     1     1     1     1     1     1     1     1     1     1     1     1     1     1     1     1     1     1     1
          1     1     1     1     1     1     1     1     1     1     1     1     1     1     1     1     1     1     1     1
          1     1     1     1     1     1     1     1     1     1     1     1     1     1     1     1     1     1     1     1
          1     1     1     1     1     1
  72      0     0     0     0     0     0     0     0     0     0     0     0     0     0     0     0     1     1     1     1
          1     1     1     1     1     1     1     1     1     1     1     1     1     1     1     1     1     1     1     1
          1     1     1     1     1     1     1     1     1     1     1     1     1     1     1     1     1     1     1     1
          1     1     1     1     1     1     1     1     1     1     1     1     1     1     1     1     1     1     1     1
          1     1     1     1     1     1     1     1     1     1     1     1     1     1     1     1     1     1     1     1
          1     1     1     1     1     1     1     1     1     1     1     1     1     1     1     1     1     1     1     1
          1     1     1     1     1     1     1     1     1     1     1     1     1     1     1     1     1     1     1     1
          1     1     1     1     1     1     1     1     1     1     1     1     1     1     1     1     1     1     1     1
          1     1     1     1     1     1     1     1     1     1     1     1     1     1     1     1     1     1     1     1
          1     1     1     1     1     1
  73      0     0     0     0     0     0     0     0     0     0     0     0     0     0     0     0     1     1     1     1
          1     1     1     1     1     1     1     1     1     1     1     1     1     1     1     1     1     1     1     1
          1     1     1     1     1     1     1     1     1     1     1     1     1     1     1     1     1     1     1     1
          1     1     1     1     1     1     1     1     1     1     1     1     1     1     1     1     1     1     1     1
          1     1     1     1     1     1     1     1     1     1     1     1     1     1     1     1     1     1     1     1
          1     1     1     1     1     1     1     1     1     1     1     1     1     1     1     1     1     1     1     1
          1     1     1     1     1     1     1     1     1     1     1     1     1     1     1     1     1     1     1     1
          1     1     1     1     1     1     1     1     1     1     1     1     1     1     1     1     1     1     1     1
          1     1     1     1     1     1     1     1     1     1     1     1     1     1     1     1     1     1     1     1
          1     1     1     1     1     1
  74      0     0     0     0     0     0     0     0     0     0     0     0     0     0     0     0     1     1     1     1
          1     1     1     1     1     1     1     1     1     1     1     1     1     1     1     1     1     1     1     1
          1     1     1     1     1     1     1     1     1     1     1     1     1     1     1     1     1     1     1     1
          1     1     1     1     1     1     1     1     1     1     1     1     1     1     1     1     1     1     1     1
          1     1     1     1     1     1     1     1     1     1     1     1     1     1     1     1     1     1     1     1
          1     1     1     1     1     1     1     1     1     1     1     1     1     1     1     1     1     1     1     1
          1     1     1     1     1     1     1     1     1     1     1     1     1     1     1     1     1     1     1     1
          1     1     1     1     1     1     1     1     1     1     1     1     1     1     1     1     1     1     1     1
          1     1     1     1     1     1     1     1     1     1     1     1     1     1     1     1     1     1     1     1
          1     1     1     1     1     1
  75      0     0     0     0     0     0     0     0     0     0     0     0     0     0     0     0     1     1     1     1
          1     1     1     1     1     1     1     1     1     1     1     1     1     1     1     1     1     1     1     1
          1     1     1     1     1     1     1     1     1     1     1     1     1     1     1     1     1     1     1     1
          1     1     1     1     1     1     1     1     1     1     1     1     1     1     1     1     1     1     1     1
          1     1     1     1     1     1     1     1     1     1     1     1     1     1     1     1     1     1     1     1
          1     1     1     1     1     1     1     1     1     1     1     1     1     1     1     1     1     1     1     1
          1     1     1     1     1     1     1     1     1     1     1     1     1     1     1     1     1     1     1     1
          1     1     1     1     1     1     1     1     1     1     1     1     1     1     1     1     1     1     1     1
          1     1     1     1     1     1     1     1     1     1     1     1     1     1     1     1     1     1     1     1
          1     1     1     1     1     1
  76      0     0     0     0     0     0     0     0     0     0     0     0     0     0     0     1     1     1     1     1
          1     1     1     1     1     1     1     1     1     1     1     1     1     1     1     1     1     1     1     1
          1     1     1     1     1     1     1     1     1     1     1     1     1     1     1     1     1     1     1     1
          1     1     1     1     1     1     1     1     1     1     1     1     1     1     1     1     1     1     1     1
          1     1     1     1     1     1     1     1     1     1     1     1     1     1     1     1     1     1     1     1
          1     1     1     1     1     1     1     1     1     1     1     1     1     1     1     1     1     1     1     1
          1     1     1     1     1     1     1     1     1     1     1     1     1     1     1     1     1     1     1     1
          1     1     1     1     1     1     1     1     1     1     1     1     1     1     1     1     1     1     1     1
          1     1     1     1     1     1     1     1     1     1     1     1     1     1     1     1     1     1     1     1
          1     1     1     1     1     1
  77      0     0     0     0     0     0     0     0     0     0     0     0     0     0     0     1     1     1     1     1
          1     1     1     1     1     1     1     1     1     1     1     1     1     1     1     1     1     1     1     1
          1     1     1     1     1     1     1     1     1     1     1     1     1     1     1     1     1     1     1     1
          1     1     1     1     1     1     1     1     1     1     1     1     1     1     1     1     1     1     1     1
          1     1     1     1     1     1     1     1     1     1     1     1     1     1     1     1     1     1     1     1
          1     1     1     1     1     1     1     1     1     1     1     1     1     1     1     1     1     1     1     1
          1     1     1     1     1     1     1     1     1     1     1     1     1     1     1     1     1     1     1     1
          1     1     1     1     1     1     1     1     1     1     1     1     1     1     1     1     1     1     1     1
          1     1     1     1     1     1     1     1     1     1     1     1     1     1     1     1     1     1     1     1
          1     1     1     1     1     1
  78      0     0     0     0     0     0     0     0     0     0     0     0     0     0     0     1     1     1     1     1
          1     1     1     1     1     1     1     1     1     1     1     1     1     1     1     1     1     1     1     1
          1     1     1     1     1     1     1     1     1     1     1     1     1     1     1     1     1     1     1     1
          1     1     1     1     1     1     1     1     1     1     1     1     1     1     1     1     1     1     1     1
          1     1     1     1     1     1     1     1     1     1     1     1     1     1     1     1     1     1     1     1
          1     1     1     1     1     1     1     1     1     1     1     1     1     1     1     1     1     1     1     1
          1     1     1     1     1     1     1     1     1     1     1     1     1     1     1     1     1     1     1     1
          1     1     1     1     1     1     1     1     1     1     1     1     1     1     1     1     1     1     1     1
          1     1     1     1     1     1     1     1     1     1     1     1     1     1     1     1     1     1     1     1
          1     1     1     1     1     1
  79      0     0     0     0     0     0     0     0     0     0     0     0     0     0     0     1     1     1     1     1
          1     1     1     1     1     1     1     1     1     1     1     1     1     1     1     1     1     1     1     1
          1     1     1     1     1     1     1     1     1     1     1     1     1     1     1     1     1     1     1     1
          1     1     1     1     1     1     1     1     1     1     1     1     1     1     1     1     1     1     1     1
          1     1     1     1     1     1     1     1     1     1     1     1     1     1     1     1     1     1     1     1
          1     1     1     1     1     1     1     1     1     1     1     1     1     1     1     1     1     1     1     1
          1     1     1     1     1     1     1     1     1     1     1     1     1     1     1     1     1     1     1     1
          1     1     1     1     1     1     1     1     1     1     1     1     1     1     1     1     1     1     1     1
          1     1     1     1     1     1     1     1     1     1     1     1     1     1     1     1     1     1     1     1
          1     1     1     1     1     1
  80      0     0     0     0     0     0     0     0     0     0     0     0     0     0     0     1     1     1     1     1
          1     1     1     1     1     1     1     1     1     1     1     1     1     1     1     1     1     1     1     1
          1     1     1     1     1     1     1     1     1     1     1     1     1     1     1     1     1     1     1     1
          1     1     1     1     1     1     1     1     1     1     1     1     1     1     1     1     1     1     1     1
          1     1     1     1     1     1     1     1     1     1     1     1     1     1     1     1     1     1     1     1
          1     1     1     1     1     1     1     1     1     1     1     1     1     1     1     1     1     1     1     1
          1     1     1     1     1     1     1     1     1     1     1     1     1     1     1     1     1     1     1     1
          1     1     1     1     1     1     1     1     1     1     1     1     1     1     1     1     1     1     1     1
          1     1     1     1     1     1     1     1     1     1     1     1     1     1     1     1     1     1     1     1
          1     1     1     1     1     1
  81      0     0     0     0     0     0     0     0     0     0     0     0     0     0     0     1     1     1     1     1
          1     1     1     1     1     1     1     1     1     1     1     1     1     1     1     1     1     1     1     1
          1     1     1     1     1     1     1     1     1     1     1     1     1     1     1     1     1     1     1     1
          1     1     1     1     1     1     1     1     1     1     1     1     1     1     1     1     1     1     1     1
          1     1     1     1     1     1     1     1     1     1     1     1     1     1     1     1     1     1     1     1
          1     1     1     1     1     1     1     1     1     1     1     1     1     1     1     1     1     1     1     1
          1     1     1     1     1     1     1     1     1     1     1     1     1     1     1     1     1     1     1     1
          1     1     1     1     1     1     1     1     1     1     1     1     1     1     1     1     1     1     1     1
          1     1     1     1     1     1     1     1     1     1     1     1     1     1     1     1     1     1     1     1
          1     1     1     1     1     1
  82      0     0     0     0     0     0     0     0     0     0     0     0     0     0     0     1     1     1     1     1
          1     1     1     1     1     1     1     1     1     1     1     1     1     1     1     1     1     1     1     1
          1     1     1     1     1     1     1     1     1     1     1     1     1     1     1     1     1     1     1     1
          1     1     1     1     1     1     1     1     1     1     1     1     1     1     1     1     1     1     1     1
          1     1     1     1     1     1     1     1     1     1     1     1     1     1     1     1     1     1     1     1
          1     1     1     1     1     1     1     1     1     1     1     1     1     1     1     1     1     1     1     1
          1     1     1     1     1     1     1     1     1     1     1     1     1     1     1     1     1     1     1     1
          1     1     1     1     1     1     1     1     1     1     1     1     1     1     1     1     1     1     1     1
          1     1     1     1     1     1     1     1     1     1     1     1     1     1     1     1     1     1     1     1
          1     1     1     1     1     1
  83      0     0     0     0     0     0     0     0     0     0     0     0     0     0     0     1     1     1     1     1
          1     1     1     1     1     1     1     1     1     1     1     1     1     1     1     1     1     1     1     1
          1     1     1     1     1     1     1     1     1     1     1     1     1     1     1     1     1     1     1     1
          1     1     1     1     1     1     1     1     1     1     1     1     1     1     1     1     1     1     1     1
          1     1     1     1     1     1     1     1     1     1     1     1     1     1     1     1     1     1     1     1
          1     1     1     1     1     1     1     1     1     1     1     1     1     1     1     1     1     1     1     1
          1     1     1     1     1     1     1     1     1     1     1     1     1     1     1     1     1     1     1     1
          1     1     1     1     1     1     1     1     1     1     1     1     1     1     1     1     1     1     1     1
          1     1     1     1     1     1     1     1     1     1     1     1     1     1     1     1     1     1     1     1
          1     1     1     1     1     1
  84      0     0     0     0     0     0     0     0     0     0     0     0     0     0     0     1     1     1     1     1
          1     1     1     1     1     1     1     1     1     1     1     1     1     1     1     1     1     1     1     1
          1     1     1     1     1     1     1     1     1     1     1     1     1     1     1     1     1     1     1     1
          1     1     1     1     1     1     1     1     1     1     1     1     1     1     1     1     1     1     1     1
          1     1     1     1     1     1     1     1     1     1     1     1     1     1     1     1     1     1     1     1
          1     1     1     1     1     1     1     1     1     1     1     1     1     1     1     1     1     1     1     1
          1     1     1     1     1     1     1     1     1     1     1     1     1     1     1     1     1     1     1     1
          1     1     1     1     1     1     1     1     1     1     1     1     1     1     1     1     1     1     1     1
          1     1     1     1     1     1     1     1     1     1     1     1     1     1     1     1     1     1     1     1
          1     1     1     1     1     1
  85      0     0     0     0     0     0     0     0     0     0     0     0     0     0     0     1     1     1     1     1
          1     1     1     1     1     1     1     1     1     1     1     1     1     1     1     1     1     1     1     1
          1     1     1     1     1     1     1     1     1     1     1     1     1     1     1     1     1     1     1     1
          1     1     1     1     1     1     1     1     1     1     1     1     1     1     1     1     1     1     1     1
          1     1     1     1     1     1     1     1     1     1     1     1     1     1     1     1     1     1     1     1
          1     1     1     1     1     1     1     1     1     1     1     1     1     1     1     1     1     1     1     1
          1     1     1     1     1     1     1     1     1     1     1     1     1     1     1     1     1     1     1     1
          1     1     1     1     1     1     1     1     1     1     1     1     1     1     1     1     1     1     1     1
          1     1     1     1     1     1     1     1     1     1     1     1     1     1     1     1     1     1     1     1
          1     1     1     1     1     1
  86      0     0     0     0     0     0     0     0     0     0     0     0     0     0     0     1     1     1     1     1
          1     1     1     1     1     1     1     1     1     1     1     1     1     1     1     1     1     1     1     1
          1     1     1     1     1     1     1     1     1     1     1     1     1     1     1     1     1     1     1     1
          1     1     1     1     1     1     1     1     1     1     1     1     1     1     1     1     1     1     1     1
          1     1     1     1     1     1     1     1     1     1     1     1     1     1     1     1     1     1     1     1
          1     1     1     1     1     1     1     1     1     1     1     1     1     1     1     1     1     1     1     1
          1     1     1     1     1     1     1     1     1     1     1     1     1     1     1     1     1     1     1     1
          1     1     1     1     1     1     1     1     1     1     1     1     1     1     1     1     1     1     1     1
          1     1     1     1     1     1     1     1     1     1     1     1     1     1     1     1     1     1     1     1
          1     1     1     1     1     1
  87      0     0     0     0     0     0     0     0     0     0     0     0     0     0     0     1     1     1     1     1
          1     1     1     1     1     1     1     1     1     1     1     1     1     1     1     1     1     1     1     1
          1     1     1     1     1     1     1     1     1     1     1     1     1     1     1     1     1     1     1     1
          1     1     1     1     1     1     1     1     1     1     1     1     1     1     1     1     1     1     1     1
          1     1     1     1     1     1     1     1     1     1     1     1     1     1     1     1     1     1     1     1
          1     1     1     1     1     1     1     1     1     1     1     1     1     1     1     1     1     1     1     1
          1     1     1     1     1     1     1     1     1     1     1     1     1     1     1     1     1     1     1     1
          1     1     1     1     1     1     1     1     1     1     1     1     1     1     1     1     1     1     1     1
          1     1     1     1     1     1     1     1     1     1     1     1     1     1     1     1     1     1     1     1
          1     1     1     1     1     1
  88      0     0     0     0     0     0     0     0     0     0     0     0     0     0     0     1     1     1     1     1
          1     1     1     1     1     1     1     1     1     1     1     1     1     1     1     1     1     1     1     1
          1     1     1     1     1     1     1     1     1     1     1     1     1     1     1     1     1     1     1     1
          1     1     1     1     1     1     1     1     1     1     1     1     1     1     1     1     1     1     1     1
          1     1     1     1     1     1     1     1     1     1     1     1     1     1     1     1     1     1     1     1
          1     1     1     1     1     1     1     1     1     1     1     1     1     1     1     1     1     1     1     1
          1     1     1     1     1     1     1     1     1     1     1     1     1     1     1     1     1     1     1     1
          1     1     1     1     1     1     1     1     1     1     1     1     1     1     1     1     1     1     1     1
          1     1     1     1     1     1     1     1     1     1     1     1     1     1     1     1     1     1     1     1
          1     1     1     1     1     1
  89      0     0     0     0     0     0     0     0     0     0     0     0     0     0     0     1     1     1     1     1
          1     1     1     1     1     1     1     1     1     1     1     1     1     1     1     1     1     1     1     1
          1     1     1     1     1     1     1     1     1     1     1     1     1     1     1     1     1     1     1     1
          1     1     1     1     1     1     1     1     1     1     1     1     1     1     1     1     1     1     1     1
          1     1     1     1     1     1     1     1     1     1     1     1     1     1     1     1     1     1     1     1
          1     1     1     1     1     1     1     1     1     1     1     1     1     1     1     1     1     1     1     1
          1     1     1     1     1     1     1     1     1     1     1     1     1     1     1     1     1     1     1     1
          1     1     1     1     1     1     1     1     1     1     1     1     1     1     1     1     1     1     1     1
          1     1     1     1     1     1     1     1     1     1     1     1     1     1     1     1     1     1     1     1
          1     1     1     1     1     1

 AQUIFER HEAD WILL BE SET TO -1.00000E+20 AT ALL NO-FLOW NODES (IBOUND=0).



                       INITIAL HEAD FOR LAYER   1
 READING ON UNIT   13 WITH FORMAT: (FREE)              

            1           2           3           4           5           6           7           8           9          10
           11          12          13          14          15          16          17          18          19          20
           21          22          23          24          25          26          27          28          29          30
           31          32          33          34          35          36          37          38          39          40
           41          42          43          44          45          46          47          48          49          50
           51          52          53          54          55          56          57          58          59          60
           61          62          63          64          65          66          67          68          69          70
           71          72          73          74          75          76          77          78          79          80
           81          82          83          84          85          86          87          88          89          90
           91          92          93          94          95          96          97          98          99         100
          101         102         103         104         105         106         107         108         109         110
          111         112         113         114         115         116         117         118         119         120
          121         122         123         124         125         126         127         128         129         130
          131         132         133         134         135         136         137         138         139         140
          141         142         143         144         145         146         147         148         149         150
          151         152         153         154         155         156         157         158         159         160
          161         162         163         164         165         166         167         168         169         170
          171         172         173         174         175         176         177         178         179         180
          181         182         183         184         185         186
 ........................................................................................................................
   1    3478.       3484.       3487.       3485.       3485.       3480.       3484.       3483.       3483.       3483.    
        3479.       3477.       3479.       3485.       3492.       3492.       3496.       3496.       3496.       3501.    
        3501.       3501.       3501.       3502.       3502.       3502.       3513.       3513.       3513.       3521.    
        3521.       3521.       3531.       3531.       3531.       3528.       3528.       3528.       3529.       3529.    
        3529.       3531.       3531.       3531.       3530.       3530.       3530.       3530.       3530.       3530.    
        3529.       3529.       3529.       3530.       3530.       3530.       3531.       3531.       3531.       3532.    
        3532.       3532.       3532.       3532.       3532.       3534.       3534.       3534.       3535.       3535.    
        3535.       3535.       3535.       3535.       3535.       3535.       3535.       3535.       3538.       3538.    
        3538.       3538.       3538.       3538.       3540.       3540.       3540.       3539.       3539.       3539.    
        3538.       3538.       3538.       3541.       3541.       3541.       3545.       3545.       3545.       3552.    
        3552.       3552.       3556.       3556.       3556.       3562.       3562.       3562.       3569.       3569.    
        3569.       3575.       3575.       3575.       3583.       3583.       3583.       3589.       3589.       3589.    
        3591.       3591.       3591.       3592.       3592.       3592.       3592.       3592.       3592.       3592.    
        3592.       3592.       3592.       3590.       3590.       3590.       3591.       3591.       3591.       3595.    
        3595.       3595.       3595.       3595.       3595.       3597.       3597.       3597.       3598.       3598.    
        3598.       3598.       3598.       3598.       3600.       3600.       3600.       3597.       3597.       3597.    
        3595.       3595.       3595.       3595.       3595.       3596.       3596.       3596.       3597.       3598.    
        3598.       3598.       3600.       3603.       3605.       3607.       3607.       3608.       3609.       3611.    
        3612.       3610.       3610.       3609.       3613.       3615.    
   2    3480.       3480.       3486.       3489.       3489.       3483.       3481.       3480.       3481.       3481.    
        3478.       3478.       3482.       3489.       3496.       3496.       3496.       3496.       3496.       3499.    
        3499.       3499.       3499.       3502.       3502.       3502.       3509.       3509.       3509.       3517.    
        3517.       3517.       3525.       3525.       3525.       3528.       3528.       3528.       3530.       3530.    
        3530.       3530.       3530.       3530.       3529.       3529.       3529.       3529.       3529.       3529.    
        3528.       3528.       3528.       3530.       3530.       3530.       3530.       3530.       3530.       3531.    
        3531.       3531.       3531.       3531.       3531.       3533.       3533.       3533.       3533.       3533.    
        3533.       3534.       3534.       3534.       3534.       3536.       3536.       3536.       3537.       3537.    
        3537.       3538.       3538.       3538.       3538.       3538.       3538.       3538.       3538.       3538.    
        3537.       3537.       3537.       3540.       3540.       3540.       3544.       3544.       3544.       3545.    
        3545.       3545.       3548.       3548.       3548.       3554.       3554.       3554.       3563.       3563.    
        3563.       3575.       3575.       3575.       3585.       3585.       3585.       3589.       3589.       3589.    
        3590.       3590.       3590.       3588.       3588.       3588.       3588.       3588.       3588.       3591.    
        3591.       3591.       3591.       3591.       3591.       3591.       3594.       3594.       3594.       3596.    
        3596.       3596.       3597.       3597.       3597.       3597.       3597.       3597.       3597.       3597.    
        3597.       3597.       3597.       3597.       3598.       3598.       3598.       3596.       3596.       3596.    
        3595.       3595.       3595.       3595.       3595.       3598.       3598.       3599.       3598.       3599.    
        3599.       3599.       3601.       3602.       3603.       3603.       3603.       3605.       3605.       3605.    
        3608.       3612.       3612.       3611.       3615.       3617.    
   3    3480.       3477.       3485.       3484.       3484.       3480.       3480.       3480.       3478.       3478.    
        3478.       3481.       3485.       3492.       3497.       3497.       3497.       3497.       3497.       3497.    
        3497.       3497.       3497.       3500.       3500.       3500.       3505.       3505.       3505.       3510.    
        3510.       3510.       3517.       3517.       3517.       3524.       3524.       3524.       3528.       3528.    
        3528.       3529.       3529.       3529.       3531.       3531.       3531.       3531.       3531.       3531.    
        3528.       3528.       3528.       3528.       3528.       3528.       3528.       3528.       3528.       3529.    
        3529.       3529.       3531.       3531.       3531.       3533.       3533.       3533.       3533.       3533.    
        3533.       3534.       3534.       3534.       3534.       3535.       3535.       3535.       3535.       3535.    
        3535.       3537.       3537.       3537.       3538.       3538.       3538.       3535.       3535.       3535.    
        3534.       3534.       3534.       3538.       3538.       3538.       3542.       3542.       3542.       3541.    
        3541.       3541.       3541.       3541.       3541.       3545.       3545.       3545.       3553.       3553.    
        3553.       3565.       3565.       3565.       3578.       3578.       3578.       3586.       3586.       3586.    
        3587.       3587.       3587.       3585.       3585.       3585.       3585.       3585.       3585.       3588.    
        3588.       3588.       3588.       3590.       3590.       3590.       3591.       3591.       3591.       3592.    
        3592.       3592.       3593.       3593.       3593.       3594.       3594.       3594.       3595.       3595.    
        3595.       3597.       3597.       3597.       3596.       3596.       3596.       3595.       3595.       3595.    
        3596.       3596.       3596.       3596.       3596.       3597.       3597.       3597.       3596.       3596.    
        3597.       3597.       3597.       3598.       3600.       3603.       3603.       3606.       3607.       3608.    
        3612.       3614.       3614.       3613.       3617.       3617.    
   4    3480.       3477.       3483.       3482.       3482.       3480.       3480.       3480.       3480.       3480.    
        3480.       3482.       3484.       3488.       3495.       3495.       3496.       3496.       3496.       3497.    
        3497.       3497.       3497.       3501.       3501.       3501.       3506.       3506.       3506.       3507.    
        3507.       3507.       3509.       3509.       3509.       3517.       3517.       3517.       3524.       3524.    
        3524.       3530.       3530.       3530.       3531.       3531.       3531.       3531.       3531.       3531.    
        3531.       3531.       3531.       3531.       3531.       3531.       3531.       3531.       3531.       3531.    
        3531.       3531.       3532.       3532.       3532.       3533.       3533.       3533.       3535.       3535.    
        3535.       3535.       3535.       3535.       3535.       3534.       3534.       3534.       3535.       3535.    
        3535.       3537.       3537.       3537.       3536.       3536.       3536.       3535.       3535.       3535.    
        3534.       3534.       3534.       3538.       3538.       3538.       3543.       3543.       3543.       3543.    
        3543.       3543.       3541.       3541.       3541.       3542.       3542.       3542.       3546.       3546.    
        3546.       3551.       3551.       3551.       3557.       3557.       3557.       3567.       3567.       3567.    
        3576.       3576.       3576.       3582.       3582.       3582.       3585.       3585.       3585.       3587.    
        3587.       3587.       3587.       3587.       3587.       3587.       3587.       3587.       3587.       3589.    
        3589.       3589.       3591.       3591.       3591.       3592.       3592.       3592.       3595.       3595.    
        3595.       3599.       3599.       3599.       3598.       3598.       3598.       3596.       3596.       3596.    
        3597.       3597.       3597.       3598.       3598.       3598.       3598.       3596.       3595.       3596.    
        3596.       3596.       3598.       3598.       3599.       3600.       3600.       3601.       3602.       3604.    
        3607.       3609.       3609.       3611.       3613.       3614.    
   5    3480.       3477.       3483.       3482.       3482.       3480.       3480.       3480.       3480.       3480.    
        3480.       3482.       3484.       3488.       3495.       3495.       3496.       3496.       3496.       3497.    
        3497.       3497.       3497.       3501.       3501.       3501.       3506.       3506.       3506.       3507.    
        3507.       3507.       3509.       3509.       3509.       3517.       3517.       3517.       3524.       3524.    
        3524.       3530.       3530.       3530.       3531.       3531.       3531.       3531.       3531.       3531.    
        3531.       3531.       3531.       3531.       3531.       3531.       3531.       3531.       3531.       3531.    
        3531.       3531.       3532.       3532.       3532.       3533.       3533.       3533.       3535.       3535.    
        3535.       3535.       3535.       3535.       3535.       3534.       3534.       3534.       3535.       3535.    
        3535.       3537.       3537.       3537.       3536.       3536.       3536.       3535.       3535.       3535.    
        3534.       3534.       3534.       3538.       3538.       3538.       3543.       3543.       3543.       3543.    
        3543.       3543.       3541.       3541.       3541.       3542.       3542.       3542.       3546.       3546.    
        3546.       3551.       3551.       3551.       3557.       3557.       3557.       3567.       3567.       3567.    
        3576.       3576.       3576.       3582.       3582.       3582.       3585.       3585.       3585.       3587.    
        3587.       3587.       3587.       3587.       3587.       3587.       3587.       3587.       3587.       3589.    
        3589.       3589.       3591.       3591.       3591.       3592.       3592.       3592.       3595.       3595.    
        3595.       3599.       3599.       3599.       3598.       3598.       3598.       3596.       3596.       3596.    
        3597.       3597.       3597.       3598.       3598.       3598.       3598.       3596.       3595.       3596.    
        3596.       3596.       3598.       3598.       3599.       3600.       3600.       3601.       3602.       3604.    
        3607.       3609.       3609.       3611.       3613.       3614.    
   6    3483.       3481.       3482.       3483.       3483.       3481.       3481.       3484.       3475.       3475.    
        3479.       3483.       3486.       3489.       3493.       3493.       3497.       3497.       3497.       3498.    
        3498.       3498.       3498.       3503.       3503.       3503.       3507.       3507.       3507.       3506.    
        3506.       3506.       3505.       3505.       3505.       3509.       3509.       3509.       3517.       3517.    
        3517.       3526.       3526.       3526.       3530.       3530.       3530.       3531.       3531.       3531.    
        3530.       3530.       3530.       3530.       3530.       3530.       3532.       3532.       3532.       3532.    
        3532.       3532.       3531.       3531.       3531.       3534.       3534.       3534.       3535.       3535.    
        3535.       3534.       3534.       3534.       3534.       3534.       3534.       3534.       3536.       3536.    
        3536.       3537.       3537.       3537.       3533.       3533.       3533.       3532.       3532.       3532.    
        3534.       3534.       3534.       3539.       3539.       3539.       3543.       3543.       3543.       3545.    
        3545.       3545.       3545.       3545.       3545.       3543.       3543.       3543.       3545.       3545.    
        3545.       3548.       3548.       3548.       3548.       3548.       3548.       3551.       3551.       3551.    
        3556.       3556.       3556.       3561.       3561.       3561.       3568.       3568.       3568.       3575.    
        3575.       3575.       3575.       3580.       3580.       3580.       3584.       3584.       3584.       3589.    
        3589.       3589.       3592.       3592.       3592.       3592.       3592.       3592.       3594.       3594.    
        3594.       3601.       3601.       3601.       3599.       3599.       3599.       3598.       3598.       3598.    
        3596.       3596.       3596.       3597.       3597.       3597.       3597.       3596.       3591.       3589.    
        3589.       3589.       3589.       3590.       3593.       3594.       3594.       3593.       3590.       3589.    
        3591.       3592.       3592.       3594.       3600.       3604.    
   7    3481.       3480.       3478.       3483.       3483.       3481.       3483.       3482.       3483.       3483.    
        3482.       3485.       3485.       3490.       3496.       3496.       3498.       3498.       3498.       3499.    
        3499.       3499.       3499.       3502.       3502.       3502.       3507.       3507.       3507.       3505.    
        3505.       3505.       3503.       3503.       3503.       3505.       3505.       3505.       3510.       3510.    
        3510.       3517.       3517.       3517.       3524.       3524.       3524.       3529.       3529.       3529.    
        3531.       3531.       3531.       3533.       3533.       3533.       3535.       3535.       3535.       3534.    
        3534.       3534.       3533.       3533.       3533.       3532.       3532.       3532.       3534.       3534.    
        3534.       3534.       3534.       3534.       3534.       3535.       3535.       3535.       3535.       3535.    
        3535.       3535.       3535.       3535.       3532.       3532.       3532.       3532.       3532.       3532.    
        3536.       3536.       3536.       3539.       3539.       3539.       3541.       3541.       3541.       3543.    
        3543.       3543.       3547.       3547.       3547.       3545.       3545.       3545.       3544.       3544.    
        3544.       3547.       3547.       3547.       3549.       3549.       3549.       3551.       3551.       3551.    
        3553.       3553.       3553.       3554.       3554.       3554.       3557.       3557.       3557.       3560.    
        3560.       3560.       3560.       3563.       3563.       3563.       3568.       3568.       3568.       3573.    
        3573.       3573.       3581.       3581.       3581.       3587.       3587.       3587.       3592.       3592.    
        3592.       3595.       3595.       3595.       3592.       3592.       3592.       3585.       3585.       3585.    
        3580.       3580.       3580.       3575.       3575.       3571.       3571.       3569.       3564.       3563.    
        3560.       3560.       3560.       3559.       3561.       3564.       3564.       3566.       3567.       3572.    
        3577.       3578.       3578.       3579.       3581.       3583.    
   8    3483.       3481.       3485.       3485.       3485.       3478.       3478.       3483.       3484.       3484.    
        3484.       3488.       3489.       3494.       3498.       3498.       3501.       3501.       3501.       3501.    
        3501.       3501.       3501.       3501.       3501.       3501.       3502.       3502.       3502.       3506.    
        3506.       3506.       3503.       3503.       3503.       3502.       3502.       3502.       3504.       3504.    
        3504.       3510.       3510.       3510.       3515.       3515.       3515.       3523.       3523.       3523.    
        3529.       3529.       3529.       3536.       3536.       3536.       3539.       3539.       3539.       3537.    
        3537.       3537.       3535.       3535.       3535.       3534.       3534.       3534.       3534.       3534.    
        3534.       3535.       3535.       3535.       3535.       3538.       3538.       3538.       3537.       3537.    
        3537.       3534.       3534.       3534.       3533.       3533.       3533.       3533.       3533.       3533.    
        3536.       3536.       3536.       3539.       3539.       3539.       3537.       3537.       3537.       3539.    
        3539.       3539.       3543.       3543.       3543.       3546.       3546.       3546.       3545.       3545.    
        3545.       3543.       3543.       3543.       3542.       3542.       3542.       3545.       3545.       3545.    
        3548.       3548.       3548.       3552.       3552.       3552.       3555.       3555.       3555.       3557.    
        3557.       3557.       3557.       3558.       3558.       3558.       3558.       3558.       3558.       3559.    
        3559.       3559.       3563.       3563.       3563.       3570.       3570.       3570.       3575.       3575.    
        3575.       3575.       3575.       3575.       3566.       3566.       3566.       3560.       3560.       3560.    
        3555.       3555.       3555.       3550.       3550.       3549.       3549.       3549.       3550.       3551.    
        3549.       3549.       3547.       3548.       3551.       3553.       3553.       3553.       3554.       3555.    
        3558.       3563.       3563.       3566.       3567.       3567.    
   9    3483.       3484.       3487.       3484.       3484.       3485.       3478.       3482.       3482.       3482.    
        3483.       3488.       3488.       3492.       3495.       3495.       3498.       3498.       3498.       3500.    
        3500.       3500.       3500.       3500.       3500.       3500.       3500.       3500.       3500.       3502.    
        3502.       3502.       3503.       3503.       3503.       3502.       3502.       3502.       3501.       3501.    
        3501.       3504.       3504.       3504.       3507.       3507.       3507.       3512.       3512.       3512.    
        3522.       3522.       3522.       3531.       3531.       3531.       3536.       3536.       3536.       3538.    
        3538.       3538.       3539.       3539.       3539.       3540.       3540.       3540.       3540.       3540.    
        3540.       3539.       3539.       3539.       3539.       3540.       3540.       3540.       3540.       3540.    
        3540.       3539.       3539.       3539.       3537.       3537.       3537.       3537.       3537.       3537.    
        3537.       3537.       3537.       3537.       3537.       3537.       3537.       3537.       3537.       3540.    
        3540.       3540.       3544.       3544.       3544.       3549.       3549.       3549.       3549.       3549.    
        3549.       3547.       3547.       3547.       3544.       3544.       3544.       3542.       3542.       3542.    
        3541.       3541.       3541.       3544.       3544.       3544.       3548.       3548.       3548.       3551.    
        3551.       3551.       3551.       3554.       3554.       3554.       3556.       3556.       3556.       3557.    
        3557.       3557.       3560.       3560.       3560.       3561.       3561.       3561.       3556.       3556.    
        3556.       3551.       3551.       3551.       3551.       3551.       3551.       3552.       3552.       3552.    
        3548.       3548.       3548.       3545.       3545.       3546.       3546.       3547.       3547.       3546.    
        3541.       3541.       3539.       3542.       3547.       3548.       3548.       3547.       3546.       3544.    
        3546.       3551.       3551.       3553.       3551.       3550.    
  10    3487.       3487.       3487.       3489.       3489.       3487.       3481.       3478.       3482.       3482.    
        3484.       3486.       3487.       3488.       3492.       3492.       3496.       3496.       3496.       3501.    
        3501.       3501.       3501.       3501.       3501.       3501.       3503.       3503.       3503.       3505.    
        3505.       3505.       3505.       3505.       3505.       3506.       3506.       3506.       3505.       3505.    
        3505.       3504.       3504.       3504.       3504.       3504.       3504.       3507.       3507.       3507.    
        3512.       3512.       3512.       3520.       3520.       3520.       3530.       3530.       3530.       3534.    
        3534.       3534.       3535.       3535.       3535.       3536.       3536.       3536.       3538.       3538.    
        3538.       3541.       3541.       3541.       3541.       3542.       3542.       3542.       3540.       3540.    
        3540.       3541.       3541.       3541.       3541.       3541.       3541.       3541.       3541.       3541.    
        3542.       3542.       3542.       3542.       3542.       3542.       3540.       3540.       3540.       3540.    
        3540.       3540.       3546.       3546.       3546.       3548.       3548.       3548.       3549.       3549.    
        3549.       3550.       3550.       3550.       3549.       3549.       3549.       3548.       3548.       3548.    
        3546.       3546.       3546.       3544.       3544.       3544.       3542.       3542.       3542.       3543.    
        3543.       3543.       3543.       3546.       3546.       3546.       3549.       3549.       3549.       3551.    
        3551.       3551.       3551.       3551.       3551.       3544.       3544.       3544.       3535.       3535.    
        3535.       3533.       3533.       3533.       3537.       3537.       3537.       3541.       3541.       3541.    
        3540.       3540.       3540.       3538.       3538.       3538.       3538.       3539.       3539.       3539.    
        3536.       3536.       3536.       3537.       3540.       3543.       3543.       3544.       3543.       3541.    
        3542.       3543.       3543.       3544.       3545.       3545.    
  11    3487.       3487.       3487.       3489.       3489.       3487.       3481.       3478.       3482.       3482.    
        3484.       3486.       3487.       3488.       3492.       3492.       3496.       3496.       3496.       3501.    
        3501.       3501.       3501.       3501.       3501.       3501.       3503.       3503.       3503.       3505.    
        3505.       3505.       3505.       3505.       3505.       3506.       3506.       3506.       3505.       3505.    
        3505.       3504.       3504.       3504.       3504.       3504.       3504.       3507.       3507.       3507.    
        3512.       3512.       3512.       3520.       3520.       3520.       3530.       3530.       3530.       3534.    
        3534.       3534.       3535.       3535.       3535.       3536.       3536.       3536.       3538.       3538.    
        3538.       3541.       3541.       3541.       3541.       3542.       3542.       3542.       3540.       3540.    
        3540.       3541.       3541.       3541.       3541.       3541.       3541.       3541.       3541.       3541.    
        3542.       3542.       3542.       3542.       3542.       3542.       3540.       3540.       3540.       3540.    
        3540.       3540.       3546.       3546.       3546.       3548.       3548.       3548.       3549.       3549.    
        3549.       3550.       3550.       3550.       3549.       3549.       3549.       3548.       3548.       3548.    
        3546.       3546.       3546.       3544.       3544.       3544.       3542.       3542.       3542.       3543.    
        3543.       3543.       3543.       3546.       3546.       3546.       3549.       3549.       3549.       3551.    
        3551.       3551.       3551.       3551.       3551.       3544.       3544.       3544.       3535.       3535.    
        3535.       3533.       3533.       3533.       3537.       3537.       3537.       3541.       3541.       3541.    
        3540.       3540.       3540.       3538.       3538.       3538.       3538.       3539.       3539.       3539.    
        3536.       3536.       3536.       3537.       3540.       3543.       3543.       3544.       3543.       3541.    
        3542.       3543.       3543.       3544.       3545.       3545.    
  12    3488.       3488.       3488.       3491.       3491.       3485.       3481.       3480.       3483.       3483.    
        3482.       3483.       3483.       3485.       3489.       3489.       3493.       3493.       3493.       3499.    
        3499.       3499.       3499.       3504.       3504.       3504.       3504.       3504.       3504.       3507.    
        3507.       3507.       3507.       3507.       3507.       3505.       3505.       3505.       3507.       3507.    
        3507.       3507.       3507.       3507.       3505.       3505.       3505.       3506.       3506.       3506.    
        3508.       3508.       3508.       3512.       3512.       3512.       3517.       3517.       3517.       3524.    
        3524.       3524.       3530.       3530.       3530.       3533.       3533.       3533.       3535.       3535.    
        3535.       3537.       3537.       3537.       3537.       3538.       3538.       3538.       3539.       3539.    
        3539.       3538.       3538.       3538.       3540.       3540.       3540.       3539.       3539.       3539.    
        3540.       3540.       3540.       3541.       3541.       3541.       3542.       3542.       3542.       3542.    
        3542.       3542.       3546.       3546.       3546.       3543.       3543.       3543.       3545.       3545.    
        3545.       3546.       3546.       3546.       3546.       3546.       3546.       3545.       3545.       3545.    
        3544.       3544.       3544.       3543.       3543.       3543.       3542.       3542.       3542.       3544.    
        3544.       3544.       3544.       3540.       3540.       3540.       3538.       3538.       3538.       3535.    
        3535.       3535.       3532.       3532.       3532.       3527.       3527.       3527.       3524.       3524.    
        3524.       3525.       3525.       3525.       3524.       3524.       3524.       3525.       3525.       3525.    
        3527.       3527.       3527.       3530.       3530.       3533.       3533.       3534.       3534.       3533.    
        3531.       3531.       3531.       3531.       3533.       3537.       3537.       3537.       3538.       3539.    
        3540.       3540.       3540.       3542.       3544.       3546.    
  13    3487.       3484.       3481.       3483.       3483.       3484.       3482.       3482.       3482.       3482.    
        3479.       3478.       3479.       3482.       3486.       3486.       3490.       3490.       3490.       3495.    
        3495.       3495.       3495.       3500.       3500.       3500.       3503.       3503.       3503.       3506.    
        3506.       3506.       3506.       3506.       3506.       3503.       3503.       3503.       3502.       3502.    
        3502.       3503.       3503.       3503.       3502.       3502.       3502.       3503.       3503.       3503.    
        3504.       3504.       3504.       3506.       3506.       3506.       3507.       3507.       3507.       3510.    
        3510.       3510.       3515.       3515.       3515.       3521.       3521.       3521.       3526.       3526.    
        3526.       3529.       3529.       3529.       3529.       3531.       3531.       3531.       3532.       3532.    
        3532.       3533.       3533.       3533.       3534.       3534.       3534.       3536.       3536.       3536.    
        3537.       3537.       3537.       3537.       3537.       3537.       3537.       3537.       3537.       3538.    
        3538.       3538.       3540.       3540.       3540.       3543.       3543.       3543.       3537.       3537.    
        3537.       3537.       3537.       3537.       3538.       3538.       3538.       3539.       3539.       3539.    
        3541.       3541.       3541.       3541.       3541.       3541.       3540.       3540.       3540.       3540.    
        3540.       3540.       3540.       3534.       3534.       3534.       3528.       3528.       3528.       3525.    
        3525.       3525.       3523.       3523.       3523.       3522.       3522.       3522.       3520.       3520.    
        3520.       3520.       3520.       3520.       3519.       3519.       3519.       3518.       3518.       3518.    
        3519.       3519.       3519.       3522.       3522.       3524.       3524.       3526.       3528.       3527.    
        3529.       3529.       3530.       3533.       3534.       3537.       3537.       3538.       3537.       3538.    
        3541.       3542.       3542.       3542.       3544.       3547.    
  14    3491.       3487.       3483.       3482.       3482.       3482.       3486.       3484.       3481.       3481.    
        3479.       3482.       3483.       3483.       3482.       3482.       3486.       3486.       3486.       3493.    
        3493.       3493.       3493.       3499.       3499.       3499.       3503.       3503.       3503.       3502.    
        3502.       3502.       3503.       3503.       3503.       3500.       3500.       3500.       3499.       3499.    
        3499.       3499.       3499.       3499.       3500.       3500.       3500.       3501.       3501.       3501.    
        3503.       3503.       3503.       3502.       3502.       3502.       3500.       3500.       3500.       3502.    
        3502.       3502.       3506.       3506.       3506.       3511.       3511.       3511.       3515.       3515.    
        3515.       3517.       3517.       3517.       3517.       3519.       3519.       3519.       3521.       3521.    
        3521.       3523.       3523.       3523.       3527.       3527.       3527.       3529.       3529.       3529.    
        3530.       3530.       3530.       3530.       3530.       3530.       3530.       3530.       3530.       3531.    
        3531.       3531.       3532.       3532.       3532.       3534.       3534.       3534.       3537.       3537.    
        3537.       3529.       3529.       3529.       3528.       3528.       3528.       3528.       3528.       3528.    
        3527.       3527.       3527.       3527.       3527.       3527.       3527.       3527.       3527.       3526.    
        3526.       3526.       3526.       3525.       3525.       3525.       3522.       3522.       3522.       3519.    
        3519.       3519.       3519.       3519.       3519.       3519.       3519.       3519.       3521.       3521.    
        3521.       3523.       3523.       3523.       3524.       3524.       3524.       3523.       3523.       3523.    
        3524.       3524.       3524.       3525.       3525.       3527.       3527.       3529.       3528.       3527.    
        3531.       3531.       3535.       3536.       3538.       3540.       3540.       3540.       3539.       3539.    
        3540.       3540.       3540.       3540.       3543.       3546.    
  15    3495.       3490.       3485.       3483.       3483.       3483.       3488.       3488.       3484.       3484.    
        3481.       3483.       3485.       3487.       3485.       3485.       3485.       3485.       3485.       3488.    
        3488.       3488.       3488.       3494.       3494.       3494.       3499.       3499.       3499.       3503.    
        3503.       3503.       3505.       3505.       3505.       3504.       3504.       3504.       3506.       3506.    
        3506.       3507.       3507.       3507.       3507.       3507.       3507.       3509.       3509.       3509.    
        3508.       3508.       3508.       3509.       3509.       3509.       3507.       3507.       3507.       3506.    
        3506.       3506.       3505.       3505.       3505.       3505.       3505.       3505.       3506.       3506.    
        3506.       3508.       3508.       3508.       3508.       3510.       3510.       3510.       3513.       3513.    
        3513.       3515.       3515.       3515.       3516.       3516.       3516.       3518.       3518.       3518.    
        3520.       3520.       3520.       3521.       3521.       3521.       3522.       3522.       3522.       3522.    
        3522.       3522.       3523.       3523.       3523.       3526.       3526.       3526.       3528.       3528.    
        3528.       3521.       3521.       3521.       3523.       3523.       3523.       3526.       3526.       3526.    
        3526.       3526.       3526.       3525.       3525.       3525.       3522.       3522.       3522.       3516.    
        3516.       3516.       3516.       3516.       3516.       3516.       3518.       3518.       3518.       3519.    
        3519.       3519.       3519.       3519.       3519.       3519.       3519.       3519.       3522.       3522.    
        3522.       3525.       3525.       3525.       3526.       3526.       3526.       3527.       3527.       3527.    
        3530.       3530.       3530.       3534.       3534.       3535.       3535.       3533.       3530.       3530.    
        3533.       3533.       3537.       3538.       3539.       3540.       3540.       3542.       3542.       3542.    
        3542.       3541.       3541.       3543.       3545.       3547.    
  16    3499.       3495.       3491.       3485.       3485.       3478.       3480.       3486.       3488.       3488.    
        3482.       3481.       3483.       3486.       3488.       3488.       3488.       3488.       3488.       3488.    
        3488.       3488.       3488.       3489.       3489.       3489.       3489.       3489.       3489.       3493.    
        3493.       3493.       3496.       3496.       3496.       3500.       3500.       3500.       3502.       3502.    
        3502.       3501.       3501.       3501.       3506.       3506.       3506.       3508.       3508.       3508.    
        3508.       3508.       3508.       3508.       3508.       3508.       3509.       3509.       3509.       3512.    
        3512.       3512.       3512.       3512.       3512.       3513.       3513.       3513.       3512.       3512.    
        3512.       3509.       3509.       3509.       3509.       3509.       3509.       3509.       3511.       3511.    
        3511.       3512.       3512.       3512.       3512.       3512.       3512.       3511.       3511.       3511.    
        3513.       3513.       3513.       3514.       3514.       3514.       3516.       3516.       3516.       3517.    
        3517.       3517.       3519.       3519.       3519.       3520.       3520.       3520.       3521.       3521.    
        3521.       3521.       3521.       3521.       3516.       3516.       3516.       3518.       3518.       3518.    
        3520.       3520.       3520.       3519.       3519.       3519.       3517.       3517.       3517.       3514.    
        3514.       3514.       3514.       3514.       3514.       3514.       3515.       3515.       3515.       3517.    
        3517.       3517.       3519.       3519.       3519.       3519.       3519.       3519.       3522.       3522.    
        3522.       3524.       3524.       3524.       3526.       3526.       3526.       3527.       3527.       3527.    
        3529.       3529.       3529.       3531.       3531.       3532.       3532.       3531.       3531.       3532.    
        3534.       3534.       3536.       3536.       3537.       3541.       3541.       3543.       3544.       3543.    
        3540.       3540.       3540.       3542.       3546.       3547.    
  17    3499.       3495.       3491.       3485.       3485.       3478.       3480.       3486.       3488.       3488.    
        3482.       3481.       3483.       3486.       3488.       3488.       3488.       3488.       3488.       3488.    
        3488.       3488.       3488.       3489.       3489.       3489.       3489.       3489.       3489.       3493.    
        3493.       3493.       3496.       3496.       3496.       3500.       3500.       3500.       3502.       3502.    
        3502.       3501.       3501.       3501.       3506.       3506.       3506.       3508.       3508.       3508.    
        3508.       3508.       3508.       3508.       3508.       3508.       3509.       3509.       3509.       3512.    
        3512.       3512.       3512.       3512.       3512.       3513.       3513.       3513.       3512.       3512.    
        3512.       3509.       3509.       3509.       3509.       3509.       3509.       3509.       3511.       3511.    
        3511.       3512.       3512.       3512.       3512.       3512.       3512.       3511.       3511.       3511.    
        3513.       3513.       3513.       3514.       3514.       3514.       3516.       3516.       3516.       3517.    
        3517.       3517.       3519.       3519.       3519.       3520.       3520.       3520.       3521.       3521.    
        3521.       3521.       3521.       3521.       3516.       3516.       3516.       3518.       3518.       3518.    
        3520.       3520.       3520.       3519.       3519.       3519.       3517.       3517.       3517.       3514.    
        3514.       3514.       3514.       3514.       3514.       3514.       3515.       3515.       3515.       3517.    
        3517.       3517.       3519.       3519.       3519.       3519.       3519.       3519.       3522.       3522.    
        3522.       3524.       3524.       3524.       3526.       3526.       3526.       3527.       3527.       3527.    
        3529.       3529.       3529.       3531.       3531.       3532.       3532.       3531.       3531.       3532.    
        3534.       3534.       3536.       3536.       3537.       3541.       3541.       3543.       3544.       3543.    
        3540.       3540.       3540.       3542.       3546.       3547.    
  18    3499.       3496.       3497.       3486.       3486.       3487.       3485.       3486.       3488.       3488.    
        3483.       3483.       3486.       3490.       3492.       3492.       3493.       3493.       3493.       3493.    
        3493.       3493.       3493.       3491.       3491.       3491.       3489.       3489.       3489.       3487.    
        3487.       3487.       3489.       3489.       3489.       3493.       3493.       3493.       3496.       3496.    
        3496.       3497.       3497.       3497.       3498.       3498.       3498.       3498.       3498.       3498.    
        3502.       3502.       3502.       3506.       3506.       3506.       3511.       3511.       3511.       3509.    
        3509.       3509.       3509.       3509.       3509.       3511.       3511.       3511.       3512.       3512.    
        3512.       3511.       3511.       3511.       3511.       3510.       3510.       3510.       3514.       3514.    
        3514.       3515.       3515.       3515.       3514.       3514.       3514.       3511.       3511.       3511.    
        3510.       3510.       3510.       3512.       3512.       3512.       3513.       3513.       3513.       3513.    
        3513.       3513.       3514.       3514.       3514.       3517.       3517.       3517.       3518.       3518.    
        3518.       3518.       3518.       3518.       3516.       3516.       3516.       3508.       3508.       3508.    
        3510.       3510.       3510.       3514.       3514.       3514.       3515.       3515.       3515.       3515.    
        3515.       3515.       3515.       3516.       3516.       3516.       3518.       3518.       3518.       3523.    
        3523.       3523.       3526.       3526.       3526.       3526.       3526.       3526.       3525.       3525.    
        3525.       3526.       3526.       3526.       3528.       3528.       3528.       3530.       3530.       3530.    
        3533.       3533.       3533.       3536.       3536.       3538.       3538.       3536.       3535.       3534.    
        3535.       3535.       3537.       3536.       3535.       3537.       3537.       3541.       3543.       3542.    
        3540.       3539.       3539.       3540.       3544.       3547.    
  19    3503.       3501.       3499.       3490.       3490.       3493.       3497.       3491.       3491.       3491.    
        3484.       3485.       3487.       3490.       3493.       3493.       3495.       3495.       3495.       3496.    
        3496.       3496.       3496.       3495.       3495.       3495.       3494.       3494.       3494.       3491.    
        3491.       3491.       3490.       3490.       3490.       3492.       3492.       3492.       3494.       3494.    
        3494.       3495.       3495.       3495.       3493.       3493.       3493.       3492.       3492.       3492.    
        3494.       3494.       3494.       3500.       3500.       3500.       3504.       3504.       3504.       3504.    
        3504.       3504.       3505.       3505.       3505.       3507.       3507.       3507.       3509.       3509.    
        3509.       3508.       3508.       3508.       3508.       3508.       3508.       3508.       3509.       3509.    
        3509.       3513.       3513.       3513.       3511.       3511.       3511.       3510.       3510.       3510.    
        3510.       3510.       3510.       3511.       3511.       3511.       3512.       3512.       3512.       3513.    
        3513.       3513.       3515.       3515.       3515.       3516.       3516.       3516.       3518.       3518.    
        3518.       3515.       3515.       3515.       3510.       3510.       3510.       3508.       3508.       3508.    
        3505.       3505.       3505.       3511.       3511.       3511.       3514.       3514.       3514.       3516.    
        3516.       3516.       3516.       3519.       3519.       3519.       3520.       3520.       3520.       3521.    
        3521.       3521.       3525.       3525.       3525.       3527.       3527.       3527.       3528.       3528.    
        3528.       3528.       3528.       3528.       3529.       3529.       3529.       3530.       3530.       3530.    
        3533.       3533.       3533.       3537.       3537.       3540.       3540.       3540.       3538.       3536.    
        3535.       3535.       3535.       3535.       3535.       3537.       3537.       3538.       3541.       3543.    
        3541.       3542.       3542.       3547.       3550.       3552.    
  20    3504.       3502.       3497.       3491.       3491.       3495.       3498.       3493.       3493.       3493.    
        3489.       3486.       3484.       3486.       3490.       3490.       3493.       3493.       3493.       3491.    
        3491.       3491.       3491.       3491.       3491.       3491.       3493.       3493.       3493.       3493.    
        3493.       3493.       3492.       3492.       3492.       3493.       3493.       3493.       3493.       3493.    
        3493.       3493.       3493.       3493.       3494.       3494.       3494.       3493.       3493.       3493.    
        3492.       3492.       3492.       3495.       3495.       3495.       3497.       3497.       3497.       3497.    
        3497.       3497.       3498.       3498.       3498.       3500.       3500.       3500.       3503.       3503.    
        3503.       3503.       3503.       3503.       3503.       3504.       3504.       3504.       3506.       3506.    
        3506.       3510.       3510.       3510.       3510.       3510.       3510.       3508.       3508.       3508.    
        3509.       3509.       3509.       3510.       3510.       3510.       3510.       3510.       3510.       3511.    
        3511.       3511.       3515.       3515.       3515.       3517.       3517.       3517.       3519.       3519.    
        3519.       3514.       3514.       3514.       3508.       3508.       3508.       3504.       3504.       3504.    
        3505.       3505.       3505.       3514.       3514.       3514.       3516.       3516.       3516.       3518.    
        3518.       3518.       3518.       3521.       3521.       3521.       3521.       3521.       3521.       3521.    
        3521.       3521.       3524.       3524.       3524.       3527.       3527.       3527.       3530.       3530.    
        3530.       3530.       3530.       3530.       3529.       3529.       3529.       3531.       3531.       3531.    
        3533.       3533.       3533.       3537.       3537.       3540.       3540.       3541.       3537.       3536.    
        3535.       3535.       3536.       3534.       3536.       3538.       3538.       3541.       3545.       3545.    
        3546.       3549.       3549.       3552.       3551.       3552.    
  21    3505.       3505.       3500.       3491.       3491.       3494.       3493.       3492.       3492.       3492.    
        3491.       3486.       3482.       3484.       3485.       3485.       3487.       3487.       3487.       3488.    
        3488.       3488.       3488.       3488.       3488.       3488.       3490.       3490.       3490.       3493.    
        3493.       3493.       3493.       3493.       3493.       3491.       3491.       3491.       3491.       3491.    
        3491.       3492.       3492.       3492.       3494.       3494.       3494.       3497.       3497.       3497.    
        3495.       3495.       3495.       3495.       3495.       3495.       3495.       3495.       3495.       3495.    
        3495.       3495.       3494.       3494.       3494.       3495.       3495.       3495.       3496.       3496.    
        3496.       3497.       3497.       3497.       3497.       3499.       3499.       3499.       3502.       3502.    
        3502.       3506.       3506.       3506.       3509.       3509.       3509.       3509.       3509.       3509.    
        3510.       3510.       3510.       3510.       3510.       3510.       3508.       3508.       3508.       3510.    
        3510.       3510.       3514.       3514.       3514.       3515.       3515.       3515.       3515.       3515.    
        3515.       3512.       3512.       3512.       3509.       3509.       3509.       3506.       3506.       3506.    
        3507.       3507.       3507.       3514.       3514.       3514.       3518.       3518.       3518.       3520.    
        3520.       3520.       3520.       3523.       3523.       3523.       3525.       3525.       3525.       3526.    
        3526.       3526.       3526.       3526.       3526.       3528.       3528.       3528.       3530.       3530.    
        3530.       3531.       3531.       3531.       3532.       3532.       3532.       3534.       3534.       3534.    
        3535.       3535.       3535.       3534.       3534.       3534.       3534.       3537.       3536.       3536.    
        3537.       3537.       3535.       3533.       3536.       3541.       3541.       3544.       3545.       3545.    
        3547.       3548.       3548.       3549.       3549.       3550.    
  22    3505.       3505.       3500.       3491.       3491.       3494.       3493.       3492.       3492.       3492.    
        3491.       3486.       3482.       3484.       3485.       3485.       3487.       3487.       3487.       3488.    
        3488.       3488.       3488.       3488.       3488.       3488.       3490.       3490.       3490.       3493.    
        3493.       3493.       3493.       3493.       3493.       3491.       3491.       3491.       3491.       3491.    
        3491.       3492.       3492.       3492.       3494.       3494.       3494.       3497.       3497.       3497.    
        3495.       3495.       3495.       3495.       3495.       3495.       3495.       3495.       3495.       3495.    
        3495.       3495.       3494.       3494.       3494.       3495.       3495.       3495.       3496.       3496.    
        3496.       3497.       3497.       3497.       3497.       3499.       3499.       3499.       3502.       3502.    
        3502.       3506.       3506.       3506.       3509.       3509.       3509.       3509.       3509.       3509.    
        3510.       3510.       3510.       3510.       3510.       3510.       3508.       3508.       3506.       3510.    
        3510.       3510.       3514.       3514.       3514.       3515.       3515.       3515.       3515.       3515.    
        3515.       3512.       3512.       3512.       3509.       3509.       3509.       3506.       3506.       3506.    
        3507.       3507.       3507.       3514.       3514.       3514.       3518.       3518.       3518.       3520.    
        3520.       3520.       3520.       3523.       3523.       3523.       3525.       3525.       3525.       3526.    
        3526.       3526.       3526.       3526.       3526.       3528.       3528.       3528.       3530.       3530.    
        3530.       3531.       3531.       3531.       3532.       3532.       3532.       3531.       3534.       3534.    
        3535.       3535.       3535.       3534.       3534.       3534.       3534.       3537.       3536.       3536.    
        3537.       3537.       3535.       3533.       3536.       3541.       3541.       3544.       3545.       3545.    
        3547.       3548.       3548.       3549.       3549.       3550.    
  23    3506.       3502.       3493.       3490.       3490.       3489.       3491.       3493.       3491.       3491.    
        3490.       3486.       3485.       3486.       3485.       3485.       3487.       3487.       3487.       3488.    
        3488.       3488.       3488.       3489.       3489.       3489.       3491.       3491.       3491.       3492.    
        3492.       3492.       3494.       3494.       3494.       3494.       3494.       3494.       3493.       3493.    
        3493.       3493.       3493.       3493.       3495.       3495.       3495.       3496.       3496.       3496.    
        3495.       3495.       3495.       3496.       3496.       3496.       3497.       3497.       3497.       3498.    
        3498.       3498.       3497.       3497.       3497.       3496.       3496.       3496.       3496.       3496.    
        3496.       3495.       3495.       3495.       3495.       3498.       3498.       3498.       3499.       3499.    
        3499.       3502.       3502.       3502.       3504.       3504.       3504.       3503.       3503.       3503.    
        3505.       3505.       3505.       3506.       3506.       3506.       3506.       3506.       3506.       3506.    
        3506.       3506.       3506.       3506.       3506.       3507.       3507.       3507.       3508.       3508.    
        3508.       3508.       3508.       3508.       3509.       3509.       3509.       3511.       3511.       3511.    
        3514.       3514.       3514.       3517.       3517.       3517.       3518.       3518.       3518.       3520.    
        3520.       3520.       3520.       3522.       3522.       3522.       3523.       3523.       3523.       3524.    
        3524.       3524.       3524.       3524.       3524.       3524.       3524.       3524.       3526.       3526.    
        3526.       3526.       3526.       3526.       3528.       3528.       3528.       3531.       3531.       3531.    
        3533.       3533.       3533.       3533.       3533.       3534.       3534.       3535.       3535.       3537.    
        3539.       3539.       3538.       3537.       3537.       3541.       3541.       3543.       3545.       3545.    
        3546.       3546.       3546.       3546.       3547.       3549.    
  24    3504.       3501.       3493.       3490.       3490.       3488.       3488.       3492.       3490.       3490.    
        3488.       3487.       3490.       3489.       3490.       3490.       3491.       3491.       3491.       3492.    
        3492.       3492.       3492.       3493.       3493.       3493.       3494.       3494.       3494.       3496.    
        3496.       3496.       3498.       3498.       3498.       3499.       3499.       3499.       3498.       3498.    
        3498.       3497.       3497.       3497.       3497.       3497.       3497.       3497.       3497.       3497.    
        3497.       3497.       3497.       3498.       3498.       3498.       3499.       3499.       3499.       3501.    
        3501.       3501.       3501.       3501.       3501.       3502.       3502.       3502.       3502.       3502.    
        3502.       3501.       3501.       3501.       3501.       3501.       3501.       3501.       3503.       3503.    
        3503.       3503.       3503.       3503.       3502.       3502.       3502.       3503.       3503.       3503.    
        3503.       3503.       3503.       3505.       3505.       3505.       3507.       3507.       3507.       3508.    
        3508.       3508.       3508.       3508.       3508.       3508.       3508.       3508.       3510.       3510.    
        3510.       3510.       3510.       3510.       3513.       3513.       3513.       3515.       3515.       3515.    
        3517.       3517.       3517.       3517.       3517.       3517.       3519.       3519.       3519.       3519.    
        3519.       3519.       3519.       3521.       3521.       3521.       3524.       3524.       3524.       3525.    
        3525.       3525.       3527.       3527.       3527.       3529.       3529.       3529.       3531.       3531.    
        3531.       3532.       3532.       3532.       3534.       3534.       3534.       3534.       3534.       3534.    
        3533.       3533.       3533.       3532.       3532.       3533.       3533.       3535.       3538.       3539.    
        3541.       3541.       3543.       3543.       3542.       3541.       3541.       3542.       3544.       3546.    
        3544.       3544.       3544.       3546.       3547.       3549.    
  25    3500.       3498.       3491.       3486.       3486.       3488.       3487.       3494.       3491.       3491.    
        3489.       3488.       3490.       3491.       3493.       3493.       3495.       3495.       3495.       3494.    
        3494.       3494.       3494.       3495.       3495.       3495.       3497.       3497.       3497.       3499.    
        3499.       3499.       3499.       3499.       3499.       3499.       3499.       3499.       3499.       3499.    
        3499.       3498.       3498.       3498.       3497.       3497.       3497.       3497.       3497.       3497.    
        3499.       3499.       3499.       3501.       3501.       3501.       3503.       3503.       3503.       3505.    
        3505.       3505.       3506.       3506.       3506.       3506.       3506.       3506.       3507.       3507.    
        3507.       3508.       3508.       3508.       3508.       3507.       3507.       3507.       3506.       3506.    
        3506.       3504.       3504.       3504.       3505.       3505.       3505.       3507.       3507.       3507.    
        3507.       3507.       3507.       3508.       3508.       3508.       3509.       3509.       3509.       3511.    
        3511.       3511.       3514.       3514.       3514.       3515.       3515.       3515.       3517.       3517.    
        3517.       3517.       3517.       3517.       3516.       3516.       3516.       3516.       3516.       3516.    
        3516.       3516.       3516.       3516.       3516.       3516.       3518.       3518.       3518.       3519.    
        3519.       3519.       3519.       3522.       3522.       3522.       3525.       3525.       3525.       3526.    
        3526.       3526.       3529.       3529.       3529.       3531.       3531.       3531.       3535.       3535.    
        3535.       3539.       3539.       3539.       3542.       3542.       3542.       3542.       3542.       3542.    
        3537.       3537.       3537.       3534.       3534.       3535.       3535.       3537.       3539.       3539.    
        3540.       3540.       3543.       3546.       3545.       3546.       3546.       3546.       3546.       3548.    
        3550.       3550.       3550.       3549.       3549.       3551.    
  26    3498.       3493.       3489.       3488.       3488.       3489.       3490.       3493.       3492.       3492.    
        3491.       3490.       3489.       3490.       3493.       3493.       3495.       3495.       3495.       3493.    
        3493.       3493.       3493.       3493.       3493.       3493.       3496.       3496.       3496.       3499.    
        3499.       3499.       3500.       3500.       3500.       3498.       3498.       3498.       3498.       3498.    
        3498.       3497.       3497.       3497.       3497.       3497.       3497.       3498.       3498.       3498.    
        3500.       3500.       3500.       3502.       3502.       3502.       3500.       3500.       3500.       3501.    
        3501.       3501.       3503.       3503.       3503.       3504.       3504.       3504.       3505.       3505.    
        3505.       3507.       3507.       3507.       3507.       3509.       3509.       3509.       3507.       3507.    
        3507.       3507.       3507.       3507.       3508.       3508.       3508.       3508.       3508.       3508.    
        3506.       3506.       3506.       3506.       3506.       3506.       3507.       3507.       3507.       3508.    
        3508.       3508.       3511.       3511.       3511.       3513.       3513.       3513.       3515.       3515.    
        3515.       3517.       3517.       3517.       3518.       3518.       3518.       3517.       3517.       3517.    
        3517.       3517.       3517.       3516.       3516.       3516.       3518.       3518.       3518.       3521.    
        3521.       3521.       3521.       3522.       3522.       3522.       3527.       3527.       3527.       3527.    
        3527.       3527.       3529.       3529.       3529.       3531.       3531.       3531.       3533.       3533.    
        3533.       3536.       3536.       3536.       3541.       3541.       3541.       3543.       3543.       3543.    
        3543.       3543.       3543.       3541.       3541.       3540.       3540.       3541.       3541.       3539.    
        3539.       3539.       3544.       3546.       3546.       3545.       3545.       3547.       3547.       3546.    
        3548.       3550.       3550.       3551.       3551.       3552.    
  27    3498.       3493.       3489.       3488.       3488.       3489.       3490.       3493.       3492.       3492.    
        3491.       3490.       3489.       3490.       3493.       3493.       3495.       3495.       3495.       3493.    
        3493.       3493.       3493.       3493.       3493.       3493.       3496.       3496.       3496.       3499.    
        3499.       3499.       3500.       3500.       3500.       3498.       3498.       3498.       3498.       3498.    
        3498.       3497.       3497.       3497.       3497.       3497.       3497.       3498.       3498.       3498.    
        3500.       3500.       3500.       3502.       3502.       3502.       3500.       3500.       3500.       3501.    
        3501.       3501.       3503.       3503.       3503.       3504.       3504.       3504.       3505.       3505.    
        3505.       3507.       3507.       3507.       3507.       3509.       3509.       3509.       3507.       3507.    
        3507.       3507.       3507.       3507.       3508.       3508.       3508.       3508.       3508.       3508.    
        3506.       3506.       3506.       3506.       3506.       3506.       3507.       3507.       3507.       3508.    
        3508.       3508.       3511.       3511.       3511.       3513.       3513.       3513.       3515.       3515.    
        3515.       3517.       3517.       3517.       3518.       3518.       3518.       3517.       3517.       3517.    
        3517.       3517.       3517.       3516.       3516.       3516.       3518.       3518.       3518.       3521.    
        3521.       3521.       3521.       3522.       3522.       3522.       3527.       3527.       3527.       3527.    
        3527.       3527.       3529.       3529.       3529.       3531.       3531.       3531.       3533.       3533.    
        3533.       3536.       3536.       3536.       3541.       3541.       3541.       3543.       3543.       3543.    
        3543.       3543.       3543.       3541.       3541.       3540.       3540.       3541.       3541.       3539.    
        3539.       3539.       3544.       3546.       3546.       3545.       3545.       3547.       3547.       3546.    
        3548.       3550.       3550.       3551.       3551.       3552.    
  28    3495.       3492.       3491.       3489.       3489.       3491.       3491.       3490.       3490.       3490.    
        3489.       3491.       3494.       3495.       3497.       3497.       3497.       3497.       3497.       3496.    
        3496.       3496.       3496.       3495.       3495.       3495.       3498.       3498.       3498.       3500.    
        3500.       3500.       3500.       3500.       3500.       3499.       3499.       3499.       3501.       3501.    
        3501.       3500.       3500.       3500.       3498.       3498.       3498.       3500.       3500.       3500.    
        3501.       3501.       3501.       3502.       3502.       3502.       3501.       3501.       3501.       3501.    
        3501.       3501.       3503.       3503.       3503.       3505.       3505.       3505.       3505.       3505.    
        3505.       3505.       3505.       3505.       3505.       3505.       3505.       3505.       3506.       3506.    
        3506.       3507.       3507.       3507.       3509.       3509.       3509.       3510.       3510.       3510.    
        3509.       3509.       3509.       3509.       3509.       3509.       3510.       3510.       3510.       3510.    
        3510.       3510.       3511.       3511.       3511.       3513.       3513.       3513.       3513.       3513.    
        3513.       3515.       3515.       3515.       3518.       3518.       3518.       3517.       3517.       3517.    
        3516.       3516.       3516.       3516.       3516.       3516.       3520.       3520.       3520.       3523.    
        3523.       3523.       3523.       3525.       3525.       3525.       3527.       3527.       3527.       3530.    
        3530.       3530.       3531.       3531.       3531.       3531.       3531.       3531.       3532.       3532.    
        3532.       3535.       3535.       3535.       3537.       3537.       3537.       3541.       3541.       3541.    
        3543.       3543.       3543.       3542.       3542.       3539.       3539.       3541.       3543.       3543.    
        3543.       3543.       3545.       3546.       3545.       3543.       3543.       3545.       3548.       3546.    
        3546.       3545.       3545.       3547.       3548.       3549.    
  29    3495.       3492.       3491.       3489.       3489.       3491.       3491.       3490.       3490.       3490.    
        3489.       3491.       3494.       3495.       3497.       3497.       3497.       3497.       3497.       3496.    
        3496.       3496.       3496.       3495.       3495.       3495.       3498.       3498.       3498.       3500.    
        3500.       3500.       3500.       3500.       3500.       3499.       3499.       3499.       3501.       3501.    
        3501.       3500.       3500.       3500.       3498.       3498.       3498.       3500.       3500.       3500.    
        3501.       3501.       3501.       3502.       3502.       3502.       3501.       3501.       3501.       3501.    
        3501.       3501.       3503.       3503.       3503.       3505.       3505.       3505.       3505.       3505.    
        3505.       3505.       3505.       3505.       3505.       3505.       3505.       3505.       3506.       3506.    
        3506.       3507.       3507.       3507.       3509.       3509.       3509.       3510.       3510.       3510.    
        3509.       3509.       3509.       3509.       3509.       3509.       3510.       3510.       3510.       3510.    
        3510.       3510.       3511.       3511.       3511.       3513.       3513.       3513.       3513.       3513.    
        3513.       3515.       3515.       3515.       3518.       3518.       3518.       3517.       3517.       3517.    
        3516.       3516.       3516.       3516.       3516.       3516.       3520.       3520.       3520.       3523.    
        3523.       3523.       3523.       3525.       3525.       3525.       3527.       3527.       3527.       3530.    
        3530.       3530.       3531.       3531.       3531.       3531.       3531.       3531.       3532.       3532.    
        3532.       3535.       3535.       3535.       3537.       3537.       3537.       3541.       3541.       3541.    
        3543.       3543.       3543.       3542.       3542.       3539.       3539.       3541.       3543.       3543.    
        3543.       3543.       3545.       3546.       3545.       3543.       3543.       3545.       3548.       3546.    
        3546.       3545.       3545.       3547.       3548.       3549.    
  30    3495.       3492.       3491.       3489.       3489.       3491.       3491.       3490.       3490.       3490.    
        3489.       3491.       3494.       3495.       3497.       3497.       3497.       3497.       3497.       3496.    
        3496.       3496.       3496.       3495.       3495.       3495.       3498.       3498.       3498.       3500.    
        3500.       3500.       3500.       3500.       3500.       3499.       3499.       3499.       3501.       3501.    
        3501.       3500.       3500.       3500.       3498.       3498.       3498.       3500.       3500.       3500.    
        3501.       3501.       3501.       3502.       3502.       3502.       3501.       3501.       3501.       3501.    
        3501.       3501.       3503.       3503.       3503.       3505.       3505.       3505.       3505.       3505.    
        3505.       3505.       3505.       3505.       3505.       3505.       3505.       3505.       3506.       3506.    
        3506.       3507.       3507.       3507.       3509.       3509.       3509.       3510.       3510.       3510.    
        3509.       3509.       3509.       3509.       3509.       3509.       3510.       3510.       3510.       3510.    
        3510.       3510.       3511.       3511.       3511.       3513.       3513.       3513.       3513.       3513.    
        3513.       3515.       3515.       3515.       3518.       3518.       3518.       3517.       3517.       3517.    
        3516.       3516.       3516.       3516.       3516.       3516.       3520.       3520.       3520.       3523.    
        3523.       3523.       3523.       3525.       3525.       3525.       3527.       3527.       3527.       3530.    
        3530.       3530.       3531.       3531.       3531.       3531.       3531.       3531.       3532.       3532.    
        3532.       3535.       3535.       3535.       3537.       3537.       3537.       3541.       3541.       3541.    
        3543.       3543.       3543.       3542.       3542.       3539.       3539.       3541.       3543.       3543.    
        3543.       3543.       3545.       3546.       3545.       3543.       3543.       3545.       3548.       3546.    
        3546.       3545.       3545.       3547.       3548.       3549.    
  31    3497.       3495.       3494.       3492.       3492.       3492.       3491.       3491.       3488.       3488.    
        3487.       3490.       3497.       3501.       3500.       3500.       3497.       3497.       3497.       3497.    
        3497.       3497.       3497.       3498.       3498.       3498.       3503.       3503.       3503.       3503.    
        3503.       3503.       3500.       3500.       3500.       3499.       3499.       3499.       3500.       3500.    
        3500.       3499.       3499.       3499.       3499.       3499.       3499.       3502.       3502.       3502.    
        3504.       3504.       3504.       3503.       3503.       3503.       3502.       3502.       3502.       3502.    
        3502.       3502.       3503.       3503.       3503.       3505.       3505.       3505.       3506.       3506.    
        3506.       3507.       3507.       3507.       3507.       3507.       3507.       3507.       3507.       3507.    
        3507.       3508.       3508.       3508.       3510.       3510.       3510.       3511.       3511.       3511.    
        3511.       3511.       3511.       3511.       3511.       3511.       3512.       3512.       3512.       3513.    
        3513.       3513.       3512.       3512.       3512.       3511.       3511.       3511.       3513.       3513.    
        3513.       3516.       3516.       3516.       3517.       3517.       3517.       3516.       3516.       3516.    
        3517.       3517.       3517.       3520.       3520.       3520.       3522.       3522.       3522.       3522.    
        3522.       3522.       3522.       3522.       3522.       3522.       3526.       3526.       3526.       3530.    
        3530.       3530.       3530.       3530.       3530.       3529.       3529.       3529.       3530.       3530.    
        3530.       3533.       3533.       3533.       3538.       3538.       3538.       3541.       3541.       3541.    
        3541.       3541.       3541.       3539.       3539.       3539.       3539.       3540.       3543.       3545.    
        3546.       3546.       3544.       3544.       3544.       3544.       3544.       3545.       3548.       3548.    
        3547.       3549.       3549.       3550.       3550.       3549.    
  32    3497.       3495.       3494.       3492.       3492.       3492.       3491.       3491.       3488.       3488.    
        3487.       3490.       3497.       3501.       3500.       3500.       3497.       3497.       3497.       3497.    
        3497.       3497.       3497.       3498.       3498.       3498.       3503.       3503.       3503.       3503.    
        3503.       3503.       3500.       3500.       3500.       3499.       3499.       3499.       3500.       3500.    
        3500.       3499.       3499.       3499.       3499.       3499.       3499.       3502.       3502.       3502.    
        3504.       3504.       3504.       3503.       3503.       3503.       3502.       3502.       3502.       3502.    
        3502.       3502.       3503.       3503.       3503.       3505.       3505.       3505.       3506.       3506.    
        3506.       3507.       3507.       3507.       3507.       3507.       3507.       3507.       3507.       3507.    
        3507.       3508.       3508.       3508.       3510.       3510.       3510.       3511.       3511.       3511.    
        3511.       3511.       3511.       3511.       3511.       3511.       3512.       3512.       3512.       3513.    
        3513.       3513.       3512.       3512.       3512.       3511.       3511.       3511.       3513.       3513.    
        3513.       3516.       3516.       3516.       3517.       3517.       3517.       3516.       3516.       3516.    
        3517.       3517.       3517.       3520.       3520.       3520.       3522.       3522.       3522.       3522.    
        3522.       3522.       3522.       3522.       3522.       3522.       3526.       3526.       3526.       3530.    
        3530.       3530.       3530.       3530.       3530.       3529.       3529.       3529.       3530.       3530.    
        3530.       3533.       3533.       3533.       3538.       3538.       3538.       3541.       3541.       3541.    
        3541.       3541.       3541.       3539.       3539.       3539.       3539.       3540.       3543.       3545.    
        3546.       3546.       3544.       3544.       3544.       3544.       3544.       3545.       3548.       3548.    
        3547.       3549.       3549.       3550.       3550.       3549.    
  33    3497.       3495.       3494.       3492.       3492.       3492.       3491.       3491.       3488.       3488.    
        3487.       3490.       3497.       3501.       3500.       3500.       3497.       3497.       3497.       3497.    
        3497.       3497.       3497.       3498.       3498.       3498.       3503.       3503.       3503.       3503.    
        3503.       3503.       3500.       3500.       3500.       3499.       3499.       3499.       3500.       3500.    
        3500.       3499.       3499.       3499.       3499.       3499.       3499.       3502.       3502.       3502.    
        3504.       3504.       3504.       3503.       3503.       3503.       3502.       3502.       3502.       3502.    
        3502.       3502.       3503.       3503.       3503.       3505.       3505.       3505.       3506.       3506.    
        3506.       3507.       3507.       3507.       3507.       3507.       3507.       3507.       3507.       3507.    
        3507.       3508.       3508.       3508.       3510.       3510.       3510.       3511.       3511.       3511.    
        3511.       3511.       3511.       3511.       3511.       3511.       3512.       3512.       3512.       3513.    
        3513.       3513.       3512.       3512.       3512.       3511.       3511.       3511.       3513.       3513.    
        3513.       3516.       3516.       3516.       3517.       3517.       3517.       3516.       3516.       3516.    
        3517.       3517.       3517.       3520.       3520.       3520.       3522.       3522.       3522.       3522.    
        3522.       3522.       3522.       3522.       3522.       3522.       3526.       3526.       3526.       3530.    
        3530.       3530.       3530.       3530.       3530.       3529.       3529.       3529.       3530.       3530.    
        3530.       3533.       3533.       3533.       3538.       3538.       3538.       3541.       3541.       3541.    
        3541.       3541.       3541.       3539.       3539.       3539.       3539.       3540.       3543.       3545.    
        3546.       3546.       3544.       3544.       3544.       3544.       3544.       3545.       3548.       3548.    
        3547.       3549.       3549.       3550.       3550.       3549.    
  34    3504.       3498.       3496.       3493.       3493.       3493.       3493.       3488.       3488.       3488.    
        3486.       3489.       3494.       3498.       3497.       3497.       3497.       3497.       3497.       3494.    
        3494.       3494.       3494.       3494.       3494.       3494.       3500.       3500.       3500.       3502.    
        3502.       3502.       3500.       3500.       3500.       3499.       3499.       3499.       3502.       3502.    
        3502.       3504.       3504.       3504.       3502.       3502.       3502.       3501.       3501.       3501.    
        3502.       3502.       3502.       3504.       3504.       3504.       3503.       3503.       3503.       3504.    
        3504.       3504.       3506.       3506.       3506.       3508.       3508.       3508.       3511.       3511.    
        3511.       3510.       3510.       3510.       3510.       3511.       3511.       3511.       3511.       3511.    
        3511.       3511.       3511.       3511.       3510.       3510.       3510.       3511.       3511.       3511.    
        3512.       3512.       3512.       3513.       3513.       3513.       3514.       3514.       3514.       3515.    
        3515.       3515.       3515.       3515.       3515.       3516.       3516.       3516.       3518.       3518.    
        3518.       3521.       3521.       3521.       3521.       3521.       3521.       3521.       3521.       3521.    
        3523.       3523.       3523.       3525.       3525.       3525.       3524.       3524.       3524.       3520.    
        3520.       3520.       3520.       3520.       3520.       3520.       3524.       3524.       3524.       3529.    
        3529.       3529.       3530.       3530.       3530.       3530.       3530.       3530.       3531.       3531.    
        3531.       3530.       3530.       3530.       3531.       3531.       3531.       3535.       3535.       3535.    
        3537.       3537.       3537.       3539.       3539.       3540.       3540.       3542.       3544.       3544.    
        3546.       3546.       3546.       3546.       3545.       3546.       3546.       3551.       3553.       3551.    
        3550.       3551.       3551.       3552.       3553.       3553.    
  35    3504.       3498.       3496.       3493.       3493.       3493.       3493.       3488.       3488.       3488.    
        3486.       3489.       3494.       3498.       3497.       3497.       3497.       3497.       3497.       3494.    
        3494.       3494.       3494.       3494.       3494.       3494.       3500.       3500.       3500.       3502.    
        3502.       3502.       3500.       3500.       3500.       3499.       3499.       3499.       3502.       3502.    
        3502.       3504.       3504.       3504.       3502.       3502.       3502.       3501.       3501.       3501.    
        3502.       3502.       3502.       3504.       3504.       3504.       3503.       3503.       3503.       3504.    
        3504.       3504.       3506.       3506.       3506.       3508.       3508.       3508.       3511.       3511.    
        3511.       3510.       3510.       3510.       3510.       3511.       3511.       3511.       3511.       3511.    
        3511.       3511.       3511.       3511.       3510.       3510.       3510.       3511.       3511.       3511.    
        3512.       3512.       3512.       3513.       3513.       3513.       3514.       3514.       3514.       3515.    
        3515.       3515.       3515.       3515.       3515.       3516.       3516.       3516.       3518.       3518.    
        3518.       3521.       3521.       3521.       3521.       3521.       3521.       3521.       3521.       3521.    
        3523.       3523.       3523.       3525.       3525.       3525.       3524.       3524.       3524.       3520.    
        3520.       3520.       3520.       3520.       3520.       3520.       3524.       3524.       3524.       3529.    
        3529.       3529.       3530.       3530.       3530.       3530.       3530.       3530.       3531.       3531.    
        3531.       3530.       3530.       3530.       3531.       3531.       3531.       3535.       3535.       3535.    
        3537.       3537.       3537.       3539.       3539.       3540.       3540.       3542.       3544.       3544.    
        3546.       3546.       3546.       3546.       3545.       3546.       3546.       3551.       3553.       3551.    
        3550.       3551.       3551.       3552.       3553.       3553.    
  36    3504.       3498.       3496.       3493.       3493.       3493.       3493.       3488.       3488.       3488.    
        3486.       3489.       3494.       3498.       3497.       3497.       3497.       3497.       3497.       3494.    
        3494.       3494.       3494.       3494.       3494.       3494.       3500.       3500.       3500.       3502.    
        3502.       3502.       3500.       3500.       3500.       3499.       3499.       3499.       3502.       3502.    
        3502.       3504.       3504.       3504.       3502.       3502.       3502.       3501.       3501.       3501.    
        3502.       3502.       3502.       3504.       3504.       3504.       3503.       3503.       3503.       3504.    
        3504.       3504.       3506.       3506.       3506.       3508.       3508.       3508.       3511.       3511.    
        3511.       3510.       3510.       3510.       3510.       3511.       3511.       3511.       3511.       3511.    
        3511.       3511.       3511.       3511.       3510.       3510.       3510.       3511.       3511.       3511.    
        3512.       3512.       3512.       3513.       3513.       3513.       3514.       3514.       3514.       3515.    
        3515.       3515.       3515.       3515.       3515.       3516.       3516.       3516.       3518.       3518.    
        3518.       3521.       3521.       3521.       3521.       3521.       3521.       3521.       3521.       3521.    
        3523.       3523.       3523.       3525.       3525.       3525.       3524.       3524.       3524.       3524.    
        3520.       3520.       3520.       3520.       3520.       3520.       3524.       3524.       3524.       3529.    
        3529.       3529.       3530.       3530.       3530.       3530.       3530.       3530.       3531.       3531.    
        3531.       3530.       3530.       3530.       3531.       3531.       3531.       3535.       3535.       3535.    
        3537.       3537.       3537.       3539.       3539.       3540.       3540.       3542.       3544.       3544.    
        3546.       3546.       3546.       3546.       3545.       3546.       3546.       3551.       3553.       3551.    
        3550.       3551.       3551.       3552.       3553.       3553.    
  37    3509.       3504.       3498.       3496.       3496.       3496.       3494.       3491.       3490.       3490.    
        3487.       3488.       3493.       3494.       3494.       3494.       3496.       3496.       3496.       3493.    
        3493.       3493.       3493.       3491.       3491.       3491.       3494.       3494.       3494.       3496.    
        3496.       3496.       3497.       3497.       3497.       3497.       3497.       3497.       3500.       3500.    
        3500.       3502.       3502.       3502.       3501.       3501.       3501.       3502.       3502.       3502.    
        3504.       3504.       3504.       3505.       3505.       3505.       3507.       3507.       3507.       3508.    
        3508.       3508.       3510.       3510.       3510.       3511.       3511.       3511.       3512.       3512.    
        3512.       3511.       3511.       3511.       3511.       3511.       3511.       3511.       3511.       3511.    
        3511.       3512.       3512.       3512.       3512.       3512.       3512.       3512.       3512.       3512.    
        3514.       3514.       3514.       3515.       3515.       3515.       3516.       3516.       3516.       3517.    
        3517.       3517.       3517.       3517.       3517.       3518.       3518.       3518.       3518.       3518.    
        3518.       3519.       3519.       3519.       3520.       3520.       3520.       3521.       3521.       3521.    
        3522.       3522.       3522.       3525.       3525.       3525.       3526.       3526.       3526.       3525.    
        3525.       3525.       3525.       3524.       3524.       3524.       3527.       3527.       3527.       3529.    
        3529.       3529.       3530.       3530.       3530.       3530.       3530.       3530.       3530.       3530.    
        3530.       3530.       3530.       3530.       3529.       3529.       3529.       3531.       3531.       3531.    
        3533.       3533.       3533.       3538.       3538.       3541.       3541.       3540.       3540.       3542.    
        3544.       3544.       3545.       3549.       3550.       3552.       3552.       3552.       3553.       3550.    
        3549.       3551.       3551.       3551.       3553.       3555.    
  38    3509.       3504.       3498.       3496.       3496.       3496.       3494.       3491.       3490.       3490.    
        3487.       3488.       3493.       3494.       3494.       3494.       3496.       3496.       3496.       3493.    
        3493.       3493.       3493.       3491.       3491.       3491.       3494.       3494.       3494.       3496.    
        3496.       3496.       3497.       3497.       3497.       3497.       3497.       3497.       3500.       3500.    
        3500.       3502.       3502.       3502.       3501.       3501.       3501.       3502.       3502.       3502.    
        3504.       3504.       3504.       3505.       3505.       3505.       3507.       3507.       3507.       3508.    
        3508.       3508.       3510.       3510.       3510.       3511.       3511.       3511.       3512.       3512.    
        3512.       3511.       3511.       3511.       3511.       3511.       3511.       3511.       3511.       3511.    
        3511.       3512.       3512.       3512.       3512.       3512.       3512.       3512.       3512.       3512.    
        3514.       3514.       3514.       3515.       3515.       3515.       3516.       3516.       3516.       3517.    
        3517.       3517.       3517.       3517.       3517.       3518.       3518.       3518.       3518.       3518.    
        3518.       3519.       3519.       3519.       3520.       3520.       3520.       3521.       3521.       3521.    
        3522.       3522.       3522.       3525.       3525.       3525.       3526.       3526.       3526.       3525.    
        3525.       3525.       3525.       3524.       3524.       3524.       3527.       3527.       3527.       3529.    
        3529.       3529.       3530.       3530.       3530.       3530.       3530.       3530.       3530.       3530.    
        3530.       3530.       3530.       3530.       3529.       3529.       3529.       3531.       3531.       3531.    
        3533.       3533.       3533.       3538.       3538.       3541.       3541.       3540.       3540.       3542.    
        3544.       3544.       3545.       3549.       3550.       3552.       3552.       3552.       3553.       3550.    
        3549.       3551.       3551.       3551.       3553.       3555.    
  39    3509.       3504.       3498.       3496.       3496.       3496.       3494.       3491.       3490.       3490.    
        3487.       3488.       3493.       3494.       3494.       3494.       3496.       3496.       3496.       3493.    
        3493.       3493.       3493.       3491.       3491.       3491.       3494.       3494.       3494.       3496.    
        3496.       3496.       3497.       3497.       3497.       3497.       3497.       3497.       3500.       3500.    
        3500.       3502.       3502.       3502.       3501.       3501.       3501.       3502.       3502.       3502.    
        3504.       3504.       3504.       3505.       3505.       3505.       3507.       3507.       3507.       3508.    
        3508.       3508.       3510.       3510.       3510.       3511.       3511.       3511.       3512.       3512.    
        3512.       3511.       3511.       3511.       3511.       3511.       3511.       3511.       3511.       3511.    
        3511.       3512.       3512.       3512.       3512.       3512.       3512.       3512.       3512.       3512.    
        3514.       3514.       3514.       3515.       3515.       3515.       3516.       3516.       3516.       3517.    
        3517.       3517.       3517.       3517.       3517.       3518.       3518.       3518.       3518.       3518.    
        3518.       3519.       3519.       3519.       3520.       3520.       3520.       3521.       3521.       3521.    
        3522.       3522.       3522.       3525.       3525.       3525.       3526.       3526.       3526.       3525.    
        3525.       3525.       3525.       3524.       3524.       3524.       3527.       3527.       3527.       3529.    
        3529.       3529.       3530.       3530.       3530.       3530.       3530.       3530.       3530.       3530.    
        3530.       3530.       3530.       3530.       3529.       3529.       3529.       3531.       3531.       3531.    
        3533.       3533.       3533.       3538.       3538.       3541.       3541.       3540.       3540.       3542.    
        3544.       3544.       3545.       3549.       3550.       3552.       3552.       3552.       3553.       3550.    
        3549.       3551.       3551.       3551.       3553.       3555.    
  40    3518.       3512.       3504.       3497.       3497.       3497.       3496.       3496.       3490.       3490.    
        3493.       3495.       3489.       3493.       3495.       3495.       3493.       3493.       3493.       3495.    
        3495.       3495.       3495.       3490.       3490.       3490.       3490.       3490.       3490.       3493.    
        3493.       3493.       3494.       3494.       3494.       3499.       3499.       3499.       3501.       3501.    
        3501.       3502.       3502.       3502.       3501.       3501.       3501.       3501.       3501.       3501.    
        3501.       3501.       3501.       3504.       3504.       3504.       3505.       3505.       3505.       3506.    
        3506.       3506.       3506.       3506.       3506.       3507.       3507.       3507.       3506.       3506.    
        3506.       3506.       3506.       3506.       3506.       3508.       3508.       3508.       3509.       3509.    
        3509.       3509.       3509.       3509.       3509.       3509.       3509.       3510.       3510.       3510.    
        3514.       3514.       3514.       3515.       3515.       3515.       3515.       3515.       3515.       3515.    
        3515.       3515.       3517.       3517.       3517.       3516.       3516.       3516.       3516.       3516.    
        3516.       3516.       3516.       3516.       3516.       3516.       3516.       3517.       3517.       3517.    
        3519.       3519.       3519.       3521.       3521.       3521.       3522.       3522.       3522.       3523.    
        3523.       3523.       3523.       3523.       3523.       3523.       3523.       3523.       3523.       3526.    
        3526.       3526.       3529.       3529.       3529.       3531.       3531.       3531.       3531.       3531.    
        3531.       3532.       3532.       3532.       3533.       3533.       3533.       3534.       3534.       3534.    
        3536.       3536.       3536.       3540.       3540.       3540.       3540.       3540.       3542.       3545.    
        3544.       3544.       3544.       3547.       3545.       3550.       3550.       3552.       3552.       3550.    
        3548.       3549.       3549.       3550.       3552.       3554.    
  41    3518.       3512.       3504.       3497.       3497.       3497.       3496.       3496.       3490.       3490.    
        3493.       3495.       3489.       3493.       3495.       3495.       3493.       3493.       3493.       3495.    
        3495.       3495.       3495.       3490.       3490.       3490.       3490.       3490.       3490.       3493.    
        3493.       3493.       3494.       3494.       3494.       3499.       3499.       3499.       3501.       3501.    
        3501.       3502.       3502.       3502.       3501.       3501.       3501.       3501.       3501.       3501.    
        3501.       3501.       3501.       3504.       3504.       3504.       3505.       3505.       3505.       3506.    
        3506.       3506.       3506.       3506.       3506.       3507.       3507.       3507.       3506.       3506.    
        3506.       3506.       3506.       3506.       3506.       3508.       3508.       3508.       3509.       3509.    
        3509.       3509.       3509.       3509.       3509.       3509.       3509.       3510.       3510.       3510.    
        3514.       3514.       3514.       3515.       3515.       3515.       3515.       3515.       3515.       3515.    
        3515.       3515.       3517.       3517.       3517.       3516.       3516.       3516.       3516.       3516.    
        3516.       3516.       3516.       3516.       3516.       3516.       3516.       3517.       3517.       3517.    
        3519.       3519.       3519.       3521.       3521.       3521.       3522.       3522.       3522.       3523.    
        3523.       3523.       3523.       3523.       3523.       3523.       3523.       3523.       3523.       3526.    
        3526.       3526.       3529.       3529.       3529.       3531.       3531.       3531.       3531.       3531.    
        3531.       3532.       3532.       3532.       3533.       3533.       3533.       3534.       3534.       3534.    
        3536.       3536.       3536.       3540.       3540.       3540.       3540.       3540.       3542.       3545.    
        3544.       3544.       3544.       3547.       3545.       3550.       3550.       3552.       3552.       3550.    
        3548.       3549.       3549.       3550.       3552.       3554.    
  42    3518.       3512.       3504.       3497.       3497.       3497.       3496.       3496.       3490.       3490.    
        3493.       3495.       3489.       3493.       3495.       3495.       3493.       3493.       3493.       3495.    
        3495.       3495.       3495.       3490.       3490.       3490.       3490.       3490.       3490.       3493.    
        3493.       3493.       3494.       3494.       3494.       3499.       3499.       3499.       3501.       3501.    
        3501.       3502.       3502.       3502.       3501.       3501.       3501.       3501.       3501.       3501.    
        3501.       3501.       3501.       3504.       3504.       3504.       3505.       3505.       3505.       3506.    
        3506.       3506.       3506.       3506.       3506.       3507.       3507.       3507.       3506.       3506.    
        3506.       3506.       3506.       3506.       3506.       3508.       3508.       3508.       3509.       3509.    
        3509.       3509.       3509.       3509.       3509.       3509.       3509.       3510.       3510.       3510.    
        3514.       3514.       3514.       3515.       3515.       3515.       3515.       3515.       3515.       3515.    
        3515.       3515.       3517.       3517.       3517.       3516.       3516.       3516.       3516.       3516.    
        3516.       3516.       3516.       3516.       3516.       3516.       3516.       3517.       3517.       3517.    
        3519.       3519.       3519.       3521.       3521.       3521.       3522.       3522.       3522.       3523.    
        3523.       3523.       3523.       3523.       3523.       3523.       3523.       3523.       3523.       3526.    
        3526.       3526.       3529.       3529.       3529.       3531.       3531.       3531.       3531.       3531.    
        3531.       3532.       3532.       3532.       3533.       3533.       3533.       3534.       3534.       3534.    
        3536.       3536.       3536.       3540.       3540.       3540.       3540.       3540.       3542.       3545.    
        3544.       3544.       3544.       3547.       3545.       3550.       3550.       3552.       3552.       3550.    
        3548.       3549.       3549.       3550.       3552.       3554.    
  43    3518.       3512.       3504.       3497.       3497.       3497.       3496.       3496.       3490.       3490.    
        3493.       3495.       3489.       3493.       3495.       3495.       3493.       3493.       3493.       3495.    
        3495.       3495.       3495.       3490.       3490.       3490.       3490.       3490.       3490.       3493.    
        3493.       3493.       3494.       3494.       3494.       3499.       3499.       3499.       3501.       3501.    
        3501.       3502.       3502.       3502.       3501.       3501.       3501.       3501.       3501.       3501.    
        3501.       3501.       3501.       3504.       3504.       3504.       3505.       3505.       3505.       3506.    
        3506.       3506.       3506.       3506.       3506.       3507.       3507.       3507.       3506.       3506.    
        3506.       3506.       3506.       3506.       3506.       3508.       3508.       3508.       3509.       3509.    
        3509.       3509.       3509.       3509.       3509.       3509.       3509.       3510.       3510.       3510.    
        3514.       3514.       3514.       3515.       3515.       3515.       3515.       3515.       3515.       3515.    
        3515.       3515.       3517.       3517.       3517.       3516.       3516.       3516.       3516.       3516.    
        3516.       3516.       3516.       3516.       3516.       3516.       3516.       3517.       3517.       3517.    
        3519.       3519.       3519.       3521.       3521.       3521.       3522.       3522.       3522.       3523.    
        3523.       3523.       3523.       3523.       3523.       3523.       3523.       3523.       3523.       3526.    
        3526.       3526.       3529.       3529.       3529.       3531.       3531.       3531.       3531.       3531.    
        3531.       3532.       3532.       3532.       3533.       3533.       3533.       3534.       3534.       3534.    
        3536.       3536.       3536.       3540.       3540.       3540.       3540.       3540.       3542.       3545.    
        3544.       3544.       3544.       3547.       3545.       3550.       3550.       3552.       3552.       3550.    
        3548.       3549.       3549.       3550.       3552.       3554.    
  44    3522.       3515.       3507.       3496.       3496.       3496.       3500.       3503.       3498.       3498.    
        3493.       3490.       3498.       3495.       3496.       3496.       3493.       3493.       3493.       3494.    
        3494.       3494.       3494.       3494.       3494.       3494.       3493.       3493.       3493.       3494.    
        3494.       3494.       3498.       3498.       3498.       3499.       3499.       3499.       3499.       3499.    
        3499.       3501.       3501.       3501.       3502.       3502.       3502.       3502.       3502.       3502.    
        3502.       3502.       3502.       3505.       3505.       3505.       3507.       3507.       3507.       3509.    
        3509.       3509.       3509.       3509.       3509.       3510.       3510.       3510.       3509.       3509.    
        3509.       3509.       3509.       3509.       3509.       3510.       3510.       3510.       3511.       3511.    
        3511.       3509.       3509.       3509.       3509.       3509.       3509.       3511.       3511.       3511.    
        3513.       3513.       3513.       3513.       3513.       3513.       3516.       3516.       3516.       3517.    
        3517.       3517.       3517.       3517.       3517.       3516.       3516.       3516.       3515.       3515.    
        3515.       3515.       3515.       3515.       3515.       3515.       3515.       3513.       3513.       3513.    
        3513.       3513.       3513.       3515.       3515.       3515.       3517.       3517.       3517.       3519.    
        3519.       3519.       3519.       3520.       3520.       3520.       3519.       3519.       3519.       3521.    
        3521.       3521.       3524.       3524.       3524.       3529.       3529.       3529.       3531.       3531.    
        3531.       3533.       3533.       3533.       3534.       3534.       3534.       3536.       3536.       3536.    
        3539.       3539.       3539.       3540.       3540.       3539.       3539.       3539.       3541.       3546.    
        3548.       3548.       3550.       3552.       3553.       3551.       3551.       3550.       3550.       3551.    
        3550.       3550.       3550.       3550.       3552.       3555.    
  45    3522.       3515.       3507.       3496.       3496.       3496.       3500.       3503.       3498.       3498.    
        3493.       3490.       3498.       3495.       3496.       3496.       3493.       3493.       3493.       3494.    
        3494.       3494.       3494.       3494.       3494.       3494.       3493.       3493.       3493.       3494.    
        3494.       3494.       3498.       3498.       3498.       3499.       3499.       3499.       3499.       3499.    
        3499.       3501.       3501.       3501.       3502.       3502.       3502.       3502.       3502.       3502.    
        3502.       3502.       3502.       3505.       3505.       3505.       3507.       3507.       3507.       3509.    
        3509.       3509.       3509.       3509.       3509.       3510.       3510.       3510.       3509.       3509.    
        3509.       3509.       3509.       3509.       3509.       3510.       3510.       3510.       3511.       3511.    
        3511.       3509.       3509.       3509.       3509.       3509.       3509.       3511.       3511.       3511.    
        3513.       3513.       3513.       3513.       3513.       3513.       3516.       3516.       3516.       3517.    
        3517.       3517.       3517.       3517.       3517.       3516.       3516.       3516.       3515.       3515.    
        3515.       3515.       3515.       3515.       3515.       3515.       3515.       3513.       3513.       3513.    
        3513.       3513.       3513.       3515.       3515.       3515.       3517.       3517.       3517.       3519.    
        3519.       3519.       3519.       3520.       3520.       3520.       3519.       3519.       3519.       3521.    
        3521.       3521.       3524.       3524.       3524.       3529.       3529.       3529.       3531.       3531.    
        3531.       3533.       3533.       3533.       3534.       3534.       3534.       3536.       3536.       3536.    
        3539.       3539.       3539.       3540.       3540.       3539.       3539.       3539.       3541.       3546.    
        3548.       3548.       3550.       3552.       3553.       3551.       3551.       3550.       3550.       3551.    
        3550.       3550.       3550.       3550.       3552.       3555.    
  46    3522.       3515.       3507.       3496.       3496.       3496.       3500.       3503.       3498.       3498.    
        3493.       3490.       3498.       3495.       3496.       3496.       3493.       3493.       3493.       3494.    
        3494.       3494.       3494.       3494.       3494.       3494.       3493.       3493.       3493.       3494.    
        3494.       3494.       3498.       3498.       3498.       3499.       3499.       3499.       3499.       3499.    
        3499.       3501.       3501.       3501.       3502.       3502.       3502.       3502.       3502.       3502.    
        3502.       3502.       3502.       3505.       3505.       3505.       3507.       3507.       3507.       3509.    
        3509.       3509.       3509.       3509.       3509.       3510.       3510.       3510.       3509.       3509.    
        3509.       3509.       3509.       3509.       3509.       3510.       3510.       3510.       3511.       3511.    
        3511.       3509.       3509.       3509.       3509.       3509.       3509.       3511.       3511.       3511.    
        3513.       3513.       3513.       3513.       3513.       3513.       3516.       3516.       3516.       3517.    
        3517.       3517.       3517.       3517.       3517.       3516.       3516.       3516.       3515.       3515.    
        3515.       3515.       3515.       3515.       3515.       3515.       3515.       3513.       3513.       3513.    
        3513.       3513.       3513.       3515.       3515.       3515.       3517.       3517.       3517.       3519.    
        3519.       3519.       3519.       3520.       3520.       3520.       3519.       3519.       3519.       3521.    
        3521.       3521.       3524.       3524.       3524.       3529.       3529.       3529.       3531.       3531.    
        3531.       3533.       3533.       3533.       3534.       3534.       3534.       3536.       3536.       3536.    
        3539.       3539.       3539.       3540.       3540.       3539.       3539.       3539.       3541.       3546.    
        3548.       3548.       3550.       3552.       3553.       3551.       3551.       3550.       3550.       3551.    
        3550.       3550.       3550.       3550.       3552.       3555.    
  47    3524.       3518.       3511.       3503.       3503.       3500.       3503.       3507.       3502.       3502.    
        3496.       3495.       3495.       3495.       3497.       3497.       3496.       3496.       3496.       3495.    
        3495.       3495.       3495.       3497.       3497.       3497.       3497.       3497.       3497.       3497.    
        3497.       3497.       3499.       3499.       3499.       3500.       3500.       3500.       3500.       3500.    
        3500.       3499.       3499.       3499.       3499.       3499.       3499.       3501.       3501.       3501.    
        3502.       3502.       3502.       3503.       3503.       3503.       3504.       3504.       3504.       3505.    
        3505.       3505.       3506.       3506.       3506.       3507.       3507.       3507.       3507.       3507.    
        3507.       3508.       3508.       3508.       3508.       3508.       3508.       3508.       3509.       3509.    
        3509.       3511.       3511.       3511.       3513.       3513.       3513.       3514.       3514.       3514.    
        3514.       3514.       3514.       3513.       3513.       3513.       3515.       3515.       3515.       3517.    
        3517.       3517.       3519.       3519.       3519.       3519.       3519.       3519.       3517.       3517.    
        3517.       3517.       3517.       3517.       3516.       3516.       3516.       3516.       3516.       3516.    
        3517.       3517.       3517.       3519.       3519.       3519.       3521.       3521.       3521.       3523.    
        3523.       3523.       3523.       3523.       3523.       3523.       3523.       3523.       3523.       3524.    
        3524.       3524.       3526.       3526.       3526.       3531.       3531.       3531.       3533.       3533.    
        3533.       3533.       3533.       3533.       3535.       3535.       3535.       3538.       3538.       3538.    
        3538.       3538.       3538.       3538.       3538.       3539.       3539.       3541.       3543.       3544.    
        3547.       3547.       3550.       3552.       3554.       3551.       3551.       3549.       3548.       3549.    
        3549.       3550.       3550.       3550.       3550.       3551.    
  48    3524.       3518.       3511.       3503.       3503.       3500.       3503.       3507.       3502.       3502.    
        3496.       3495.       3495.       3495.       3497.       3497.       3496.       3496.       3496.       3495.    
        3495.       3495.       3495.       3497.       3497.       3497.       3497.       3497.       3497.       3497.    
        3497.       3497.       3499.       3499.       3499.       3500.       3500.       3500.       3500.       3500.    
        3500.       3499.       3499.       3499.       3499.       3499.       3499.       3501.       3501.       3501.    
        3502.       3502.       3502.       3503.       3503.       3503.       3504.       3504.       3504.       3505.    
        3505.       3505.       3506.       3506.       3506.       3507.       3507.       3507.       3507.       3507.    
        3507.       3508.       3508.       3508.       3508.       3508.       3508.       3508.       3509.       3509.    
        3509.       3511.       3511.       3511.       3513.       3513.       3513.       3514.       3514.       3514.    
        3514.       3514.       3514.       3513.       3513.       3513.       3515.       3515.       3515.       3517.    
        3517.       3517.       3519.       3519.       3519.       3519.       3519.       3519.       3517.       3517.    
        3517.       3517.       3517.       3517.       3516.       3516.       3516.       3516.       3516.       3516.    
        3517.       3517.       3517.       3519.       3519.       3519.       3521.       3521.       3521.       3523.    
        3523.       3523.       3523.       3523.       3523.       3523.       3523.       3523.       3523.       3524.    
        3524.       3524.       3526.       3526.       3526.       3531.       3531.       3531.       3533.       3533.    
        3533.       3533.       3533.       3533.       3535.       3535.       3535.       3538.       3538.       3538.    
        3538.       3538.       3538.       3538.       3538.       3539.       3539.       3541.       3543.       3544.    
        3547.       3547.       3550.       3552.       3554.       3551.       3551.       3549.       3548.       3549.    
        3549.       3550.       3550.       3550.       3550.       3551.    
  49    3524.       3518.       3511.       3503.       3503.       3500.       3503.       3507.       3502.       3502.    
        3496.       3495.       3495.       3495.       3497.       3497.       3496.       3496.       3496.       3495.    
        3495.       3495.       3495.       3497.       3497.       3497.       3497.       3497.       3497.       3497.    
        3497.       3497.       3499.       3499.       3499.       3500.       3500.       3500.       3500.       3500.    
        3500.       3499.       3499.       3499.       3499.       3499.       3499.       3501.       3501.       3501.    
        3502.       3502.       3502.       3503.       3503.       3503.       3504.       3504.       3504.       3505.    
        3505.       3505.       3506.       3506.       3506.       3507.       3507.       3507.       3507.       3507.    
        3507.       3508.       3508.       3508.       3508.       3508.       3508.       3508.       3509.       3509.    
        3509.       3511.       3511.       3511.       3513.       3513.       3513.       3514.       3514.       3514.    
        3514.       3514.       3514.       3513.       3513.       3513.       3515.       3515.       3515.       3517.    
        3517.       3517.       3519.       3519.       3519.       3519.       3519.       3519.       3517.       3517.    
        3517.       3517.       3517.       3517.       3516.       3516.       3516.       3516.       3516.       3516.    
        3517.       3517.       3517.       3519.       3519.       3519.       3521.       3521.       3521.       3523.    
        3523.       3523.       3523.       3523.       3523.       3523.       3523.       3523.       3523.       3524.    
        3524.       3524.       3526.       3526.       3526.       3531.       3531.       3531.       3533.       3533.    
        3533.       3533.       3533.       3533.       3535.       3535.       3535.       3538.       3538.       3538.    
        3538.       3538.       3538.       3538.       3538.       3539.       3539.       3541.       3543.       3544.    
        3547.       3547.       3550.       3552.       3554.       3551.       3551.       3549.       3548.       3549.    
        3549.       3550.       3550.       3550.       3550.       3551.    
  50    3525.       3520.       3515.       3507.       3507.       3502.       3501.       3503.       3495.       3495.    
        3492.       3496.       3492.       3492.       3494.       3494.       3494.       3494.       3494.       3494.    
        3494.       3494.       3494.       3496.       3496.       3496.       3495.       3495.       3495.       3495.    
        3495.       3495.       3499.       3499.       3499.       3503.       3503.       3503.       3502.       3502.    
        3502.       3502.       3502.       3502.       3502.       3502.       3502.       3504.       3504.       3504.    
        3505.       3505.       3505.       3506.       3506.       3506.       3506.       3506.       3506.       3507.    
        3507.       3507.       3508.       3508.       3508.       3509.       3509.       3509.       3510.       3510.    
        3510.       3511.       3511.       3511.       3511.       3512.       3512.       3512.       3513.       3513.    
        3513.       3515.       3515.       3515.       3515.       3515.       3515.       3515.       3515.       3515.    
        3515.       3515.       3515.       3515.       3515.       3515.       3515.       3515.       3515.       3515.    
        3515.       3515.       3516.       3516.       3516.       3516.       3516.       3516.       3519.       3519.    
        3519.       3521.       3521.       3521.       3520.       3520.       3520.       3520.       3520.       3520.    
        3522.       3522.       3522.       3522.       3522.       3522.       3521.       3521.       3521.       3522.    
        3522.       3522.       3522.       3522.       3522.       3522.       3523.       3523.       3523.       3524.    
        3524.       3524.       3527.       3527.       3527.       3533.       3533.       3533.       3534.       3534.    
        3534.       3534.       3534.       3534.       3535.       3535.       3535.       3536.       3536.       3536.    
        3538.       3538.       3538.       3538.       3538.       3539.       3539.       3540.       3541.       3541.    
        3543.       3543.       3545.       3548.       3549.       3549.       3549.       3547.       3546.       3547.    
        3547.       3549.       3549.       3548.       3550.       3551.    
  51    3525.       3520.       3515.       3507.       3507.       3502.       3501.       3503.       3495.       3495.    
        3492.       3496.       3492.       3492.       3494.       3494.       3494.       3494.       3494.       3494.    
        3494.       3494.       3494.       3496.       3496.       3496.       3495.       3495.       3495.       3495.    
        3495.       3495.       3499.       3499.       3499.       3503.       3503.       3503.       3502.       3502.    
        3502.       3502.       3502.       3502.       3502.       3502.       3502.       3504.       3504.       3504.    
        3505.       3505.       3505.       3506.       3506.       3506.       3506.       3506.       3506.       3507.    
        3507.       3507.       3508.       3508.       3508.       3509.       3509.       3509.       3510.       3510.    
        3510.       3511.       3511.       3511.       3511.       3512.       3512.       3512.       3513.       3513.    
        3513.       3515.       3515.       3515.       3515.       3515.       3515.       3515.       3515.       3515.    
        3515.       3515.       3515.       3515.       3515.       3515.       3515.       3515.       3515.       3515.    
        3515.       3515.       3516.       3516.       3516.       3516.       3516.       3516.       3519.       3519.    
        3519.       3521.       3521.       3521.       3520.       3520.       3520.       3520.       3520.       3520.    
        3522.       3522.       3522.       3522.       3522.       3522.       3521.       3521.       3521.       3522.    
        3522.       3522.       3522.       3522.       3522.       3522.       3523.       3523.       3523.       3524.    
        3524.       3524.       3527.       3527.       3527.       3533.       3533.       3533.       3534.       3534.    
        3534.       3534.       3534.       3534.       3535.       3535.       3535.       3536.       3536.       3536.    
        3538.       3538.       3538.       3538.       3538.       3539.       3539.       3540.       3541.       3541.    
        3543.       3543.       3545.       3548.       3549.       3549.       3549.       3547.       3546.       3547.    
        3547.       3549.       3549.       3548.       3550.       3551.    
  52    3525.       3520.       3515.       3507.       3507.       3502.       3501.       3503.       3495.       3495.    
        3492.       3496.       3492.       3492.       3494.       3494.       3494.       3494.       3494.       3494.    
        3494.       3494.       3494.       3496.       3496.       3496.       3495.       3495.       3495.       3495.    
        3495.       3495.       3499.       3499.       3499.       3503.       3503.       3503.       3502.       3502.    
        3502.       3502.       3502.       3502.       3502.       3502.       3502.       3504.       3504.       3504.    
        3505.       3505.       3505.       3506.       3506.       3506.       3506.       3506.       3506.       3507.    
        3507.       3507.       3508.       3508.       3508.       3509.       3509.       3509.       3510.       3510.    
        3510.       3511.       3511.       3511.       3511.       3512.       3512.       3512.       3513.       3513.    
        3513.       3515.       3515.       3515.       3515.       3515.       3515.       3515.       3515.       3515.    
        3515.       3515.       3515.       3515.       3515.       3515.       3515.       3515.       3515.       3515.    
        3515.       3515.       3516.       3516.       3516.       3516.       3516.       3516.       3519.       3519.    
        3519.       3521.       3521.       3521.       3520.       3520.       3520.       3520.       3520.       3520.    
        3522.       3522.       3522.       3522.       3522.       3522.       3521.       3521.       3521.       3522.    
        3522.       3522.       3522.       3522.       3522.       3522.       3523.       3523.       3523.       3524.    
        3524.       3524.       3527.       3527.       3527.       3533.       3533.       3533.       3534.       3534.    
        3534.       3534.       3534.       3534.       3535.       3535.       3535.       3536.       3536.       3536.    
        3538.       3538.       3538.       3538.       3538.       3539.       3539.       3540.       3541.       3541.    
        3543.       3543.       3545.       3548.       3549.       3549.       3549.       3547.       3546.       3547.    
        3547.       3549.       3549.       3548.       3550.       3551.    
  53    3527.       3520.       3517.       3511.       3511.       3507.       3504.       3499.       3494.       3494.    
        3491.       3493.       3490.       3493.       3494.       3494.       3495.       3495.       3495.       3493.    
        3493.       3493.       3493.       3496.       3496.       3496.       3498.       3498.       3498.       3498.    
        3498.       3498.       3500.       3500.       3500.       3501.       3501.       3501.       3500.       3500.    
        3500.       3499.       3499.       3499.       3501.       3501.       3501.       3504.       3504.       3504.    
        3505.       3505.       3505.       3506.       3506.       3506.       3507.       3507.       3507.       3508.    
        3508.       3508.       3509.       3509.       3509.       3509.       3509.       3509.       3511.       3511.    
        3511.       3512.       3512.       3512.       3512.       3513.       3513.       3513.       3514.       3514.    
        3514.       3515.       3515.       3515.       3515.       3515.       3515.       3515.       3515.       3515.    
        3513.       3513.       3513.       3514.       3514.       3514.       3514.       3514.       3514.       3516.    
        3516.       3516.       3520.       3520.       3520.       3520.       3520.       3520.       3520.       3520.    
        3520.       3520.       3520.       3520.       3519.       3519.       3519.       3519.       3519.       3519.    
        3520.       3520.       3520.       3522.       3522.       3522.       3520.       3520.       3520.       3521.    
        3521.       3521.       3521.       3523.       3523.       3523.       3528.       3528.       3528.       3530.    
        3530.       3530.       3531.       3531.       3531.       3533.       3533.       3533.       3536.       3536.    
        3536.       3535.       3535.       3535.       3534.       3534.       3534.       3536.       3536.       3536.    
        3537.       3537.       3537.       3537.       3537.       3537.       3537.       3537.       3538.       3539.    
        3542.       3542.       3544.       3547.       3550.       3548.       3548.       3546.       3546.       3547.    
        3549.       3551.       3551.       3552.       3553.       3554.    
  54    3527.       3520.       3517.       3511.       3511.       3507.       3504.       3499.       3494.       3494.    
        3491.       3493.       3490.       3493.       3494.       3494.       3495.       3495.       3495.       3493.    
        3493.       3493.       3493.       3496.       3496.       3496.       3498.       3498.       3498.       3498.    
        3498.       3498.       3500.       3500.       3500.       3501.       3501.       3501.       3500.       3500.    
        3500.       3499.       3499.       3499.       3501.       3501.       3501.       3504.       3504.       3504.    
        3505.       3505.       3505.       3506.       3506.       3506.       3507.       3507.       3507.       3508.    
        3508.       3508.       3509.       3509.       3509.       3509.       3509.       3509.       3511.       3511.    
        3511.       3512.       3512.       3512.       3512.       3513.       3513.       3513.       3514.       3514.    
        3514.       3515.       3515.       3515.       3515.       3515.       3515.       3515.       3515.       3515.    
        3513.       3513.       3513.       3514.       3514.       3514.       3514.       3514.       3514.       3516.    
        3516.       3516.       3520.       3520.       3520.       3520.       3520.       3520.       3520.       3520.    
        3520.       3520.       3520.       3520.       3519.       3519.       3519.       3519.       3519.       3519.    
        3520.       3520.       3520.       3522.       3522.       3522.       3520.       3520.       3520.       3521.    
        3521.       3521.       3521.       3523.       3523.       3523.       3528.       3528.       3528.       3530.    
        3530.       3530.       3531.       3531.       3531.       3533.       3533.       3533.       3536.       3536.    
        3536.       3535.       3535.       3535.       3534.       3534.       3534.       3536.       3536.       3536.    
        3537.       3537.       3537.       3537.       3537.       3537.       3537.       3537.       3538.       3539.    
        3542.       3542.       3544.       3547.       3550.       3548.       3548.       3546.       3546.       3547.    
        3549.       3551.       3551.       3552.       3553.       3554.    
  55    3527.       3520.       3517.       3511.       3511.       3507.       3504.       3499.       3494.       3494.    
        3491.       3493.       3490.       3493.       3494.       3494.       3495.       3495.       3495.       3493.    
        3493.       3493.       3493.       3496.       3496.       3496.       3498.       3498.       3498.       3498.    
        3498.       3498.       3500.       3500.       3500.       3501.       3501.       3501.       3500.       3500.    
        3500.       3499.       3499.       3499.       3501.       3501.       3501.       3504.       3504.       3504.    
        3505.       3505.       3505.       3506.       3506.       3506.       3507.       3507.       3507.       3508.    
        3508.       3508.       3509.       3509.       3509.       3509.       3509.       3509.       3511.       3511.    
        3511.       3512.       3512.       3512.       3512.       3513.       3513.       3513.       3514.       3514.    
        3514.       3515.       3515.       3515.       3515.       3515.       3515.       3515.       3515.       3515.    
        3513.       3513.       3513.       3514.       3514.       3514.       3514.       3514.       3514.       3516.    
        3516.       3516.       3520.       3520.       3520.       3520.       3520.       3520.       3520.       3520.    
        3520.       3520.       3520.       3520.       3519.       3519.       3519.       3519.       3519.       3519.    
        3520.       3520.       3520.       3522.       3522.       3522.       3520.       3520.       3520.       3520.    
        3521.       3521.       3521.       3523.       3523.       3523.       3528.       3528.       3528.       3530.    
        3530.       3530.       3531.       3531.       3531.       3533.       3533.       3533.       3536.       3536.    
        3536.       3535.       3535.       3535.       3534.       3534.       3534.       3536.       3536.       3536.    
        3537.       3537.       3537.       3537.       3537.       3537.       3537.       3537.       3538.       3539.    
        3542.       3542.       3544.       3547.       3550.       3548.       3548.       3546.       3546.       3547.    
        3549.       3551.       3551.       3552.       3553.       3554.    
  56    3527.       3522.       3518.       3514.       3514.       3511.       3510.       3507.       3501.       3501.    
        3496.       3493.       3490.       3493.       3497.       3497.       3495.       3495.       3495.       3495.    
        3495.       3495.       3495.       3495.       3495.       3495.       3495.       3495.       3495.       3498.    
        3498.       3498.       3501.       3501.       3501.       3501.       3501.       3501.       3500.       3500.    
        3500.       3500.       3500.       3500.       3501.       3501.       3501.       3503.       3503.       3503.    
        3504.       3504.       3504.       3504.       3504.       3504.       3506.       3506.       3506.       3509.    
        3509.       3509.       3509.       3509.       3509.       3509.       3509.       3509.       3509.       3509.    
        3509.       3509.       3509.       3509.       3509.       3510.       3510.       3510.       3512.       3512.    
        3512.       3513.       3513.       3513.       3516.       3516.       3516.       3516.       3516.       3516.    
        3518.       3518.       3518.       3517.       3517.       3517.       3515.       3515.       3515.       3515.    
        3515.       3515.       3519.       3519.       3519.       3521.       3521.       3521.       3521.       3521.    
        3521.       3519.       3519.       3519.       3518.       3518.       3518.       3519.       3519.       3519.    
        3521.       3521.       3521.       3524.       3524.       3524.       3525.       3525.       3525.       3527.    
        3527.       3527.       3527.       3529.       3529.       3529.       3531.       3531.       3531.       3531.    
        3531.       3531.       3532.       3532.       3532.       3532.       3532.       3532.       3534.       3534.    
        3534.       3536.       3536.       3536.       3538.       3538.       3538.       3538.       3538.       3538.    
        3537.       3537.       3537.       3536.       3536.       3537.       3537.       3535.       3537.       3543.    
        3547.       3547.       3549.       3550.       3553.       3553.       3553.       3550.       3550.       3550.    
        3550.       3551.       3551.       3553.       3555.       3559.    
  57    3527.       3522.       3518.       3514.       3514.       3511.       3510.       3507.       3501.       3501.    
        3496.       3493.       3490.       3493.       3497.       3497.       3495.       3495.       3495.       3495.    
        3495.       3495.       3495.       3495.       3495.       3495.       3495.       3495.       3495.       3498.    
        3498.       3498.       3501.       3501.       3501.       3501.       3501.       3501.       3500.       3500.    
        3500.       3500.       3500.       3500.       3501.       3501.       3501.       3503.       3503.       3503.    
        3504.       3504.       3504.       3504.       3504.       3504.       3506.       3506.       3506.       3509.    
        3509.       3509.       3509.       3509.       3509.       3509.       3509.       3509.       3509.       3509.    
        3509.       3509.       3509.       3509.       3509.       3510.       3510.       3510.       3512.       3512.    
        3512.       3513.       3513.       3513.       3516.       3516.       3516.       3516.       3516.       3516.    
        3518.       3518.       3518.       3517.       3517.       3517.       3515.       3515.       3515.       3515.    
        3515.       3515.       3519.       3519.       3519.       3521.       3521.       3521.       3521.       3521.    
        3521.       3519.       3519.       3519.       3518.       3518.       3518.       3519.       3519.       3519.    
        3521.       3521.       3521.       3524.       3524.       3524.       3525.       3525.       3525.       3527.    
        3527.       3527.       3527.       3529.       3529.       3529.       3531.       3531.       3531.       3531.    
        3531.       3531.       3532.       3532.       3532.       3532.       3532.       3532.       3534.       3534.    
        3534.       3536.       3536.       3536.       3538.       3538.       3538.       3538.       3538.       3538.    
        3537.       3537.       3537.       3536.       3536.       3537.       3537.       3535.       3537.       3543.    
        3547.       3547.       3549.       3550.       3553.       3553.       3553.       3550.       3550.       3550.    
        3550.       3551.       3551.       3553.       3555.       3559.    
  58    3527.       3522.       3518.       3514.       3514.       3511.       3510.       3507.       3501.       3501.    
        3496.       3493.       3490.       3493.       3497.       3497.       3495.       3495.       3495.       3495.    
        3495.       3495.       3495.       3495.       3495.       3495.       3495.       3495.       3495.       3498.    
        3498.       3498.       3501.       3501.       3501.       3501.       3501.       3501.       3500.       3500.    
        3500.       3500.       3500.       3500.       3501.       3501.       3501.       3503.       3503.       3503.    
        3504.       3504.       3504.       3504.       3504.       3504.       3506.       3506.       3506.       3509.    
        3509.       3509.       3509.       3509.       3509.       3509.       3509.       3509.       3509.       3509.    
        3509.       3509.       3509.       3509.       3509.       3510.       3510.       3510.       3512.       3512.    
        3512.       3513.       3513.       3513.       3516.       3516.       3516.       3516.       3516.       3516.    
        3518.       3518.       3518.       3517.       3517.       3517.       3515.       3515.       3515.       3515.    
        3515.       3515.       3519.       3519.       3519.       3521.       3521.       3521.       3521.       3521.    
        3521.       3519.       3519.       3519.       3518.       3518.       3518.       3519.       3519.       3519.    
        3521.       3521.       3521.       3524.       3524.       3524.       3525.       3525.       3525.       3527.    
        3527.       3527.       3527.       3529.       3529.       3529.       3531.       3531.       3531.       3531.    
        3531.       3531.       3532.       3532.       3532.       3532.       3532.       3532.       3534.       3534.    
        3534.       3536.       3536.       3536.       3538.       3538.       3538.       3538.       3538.       3538.    
        3537.       3537.       3537.       3536.       3536.       3537.       3537.       3535.       3537.       3543.    
        3547.       3547.       3549.       3550.       3553.       3553.       3553.       3550.       3550.       3550.    
        3550.       3551.       3551.       3553.       3555.       3559.    
  59    3529.       3522.       3518.       3520.       3520.       3519.       3517.       3511.       3506.       3506.    
        3503.       3500.       3494.       3494.       3500.       3500.       3498.       3498.       3498.       3498.    
        3498.       3498.       3498.       3498.       3498.       3498.       3496.       3496.       3496.       3497.    
        3497.       3497.       3499.       3499.       3499.       3498.       3498.       3498.       3498.       3498.    
        3498.       3498.       3498.       3498.       3499.       3499.       3499.       3501.       3501.       3501.    
        3502.       3502.       3502.       3501.       3501.       3501.       3503.       3503.       3503.       3506.    
        3506.       3506.       3507.       3507.       3507.       3508.       3508.       3508.       3510.       3510.    
        3510.       3511.       3511.       3511.       3511.       3510.       3510.       3510.       3510.       3510.    
        3510.       3511.       3511.       3511.       3515.       3515.       3515.       3517.       3517.       3517.    
        3519.       3519.       3519.       3521.       3521.       3521.       3520.       3520.       3520.       3519.    
        3519.       3519.       3520.       3520.       3520.       3521.       3521.       3521.       3521.       3521.    
        3521.       3519.       3519.       3519.       3520.       3520.       3520.       3521.       3521.       3521.    
        3524.       3524.       3524.       3526.       3526.       3526.       3529.       3529.       3529.       3532.    
        3532.       3532.       3532.       3535.       3535.       3535.       3536.       3536.       3536.       3536.    
        3536.       3536.       3536.       3536.       3536.       3536.       3536.       3536.       3536.       3536.    
        3536.       3537.       3537.       3537.       3538.       3538.       3538.       3537.       3537.       3537.    
        3538.       3538.       3538.       3536.       3536.       3538.       3538.       3540.       3542.       3548.    
        3550.       3550.       3550.       3551.       3553.       3554.       3554.       3551.       3550.       3551.    
        3553.       3555.       3555.       3558.       3563.       3569.    
  60    3529.       3522.       3518.       3520.       3520.       3519.       3517.       3511.       3506.       3506.    
        3503.       3500.       3494.       3494.       3500.       3500.       3498.       3498.       3498.       3498.    
        3498.       3498.       3498.       3498.       3498.       3498.       3496.       3496.       3496.       3497.    
        3497.       3497.       3499.       3499.       3499.       3498.       3498.       3498.       3498.       3498.    
        3498.       3498.       3498.       3498.       3499.       3499.       3499.       3501.       3501.       3501.    
        3502.       3502.       3502.       3501.       3501.       3501.       3503.       3503.       3503.       3506.    
        3506.       3506.       3507.       3507.       3507.       3508.       3508.       3508.       3510.       3510.    
        3510.       3511.       3511.       3511.       3511.       3510.       3510.       3510.       3510.       3510.    
        3510.       3511.       3511.       3511.       3515.       3515.       3515.       3517.       3517.       3517.    
        3519.       3519.       3519.       3521.       3521.       3521.       3520.       3520.       3520.       3519.    
        3519.       3519.       3520.       3520.       3520.       3521.       3521.       3521.       3521.       3521.    
        3521.       3519.       3519.       3519.       3520.       3520.       3520.       3521.       3521.       3521.    
        3524.       3524.       3524.       3526.       3526.       3526.       3529.       3529.       3529.       3532.    
        3532.       3532.       3532.       3535.       3535.       3535.       3536.       3536.       3536.       3536.    
        3536.       3536.       3536.       3536.       3536.       3536.       3536.       3536.       3536.       3536.    
        3536.       3537.       3537.       3537.       3538.       3538.       3538.       3537.       3537.       3537.    
        3538.       3538.       3538.       3536.       3536.       3538.       3538.       3540.       3542.       3548.    
        3550.       3550.       3550.       3551.       3553.       3554.       3554.       3551.       3550.       3551.    
        3553.       3555.       3555.       3558.       3563.       3569.    
  61    3529.       3522.       3518.       3520.       3520.       3519.       3517.       3511.       3506.       3506.    
        3503.       3500.       3494.       3494.       3500.       3500.       3498.       3498.       3498.       3498.    
        3498.       3498.       3498.       3498.       3498.       3498.       3496.       3496.       3496.       3497.    
        3497.       3497.       3499.       3499.       3499.       3498.       3498.       3498.       3498.       3498.    
        3498.       3498.       3498.       3498.       3499.       3499.       3499.       3501.       3501.       3501.    
        3502.       3502.       3502.       3501.       3501.       3501.       3503.       3503.       3503.       3506.    
        3506.       3506.       3507.       3507.       3507.       3508.       3508.       3508.       3510.       3510.    
        3510.       3511.       3511.       3511.       3511.       3510.       3510.       3510.       3510.       3510.    
        3510.       3511.       3511.       3511.       3515.       3515.       3515.       3517.       3517.       3517.    
        3519.       3519.       3519.       3521.       3521.       3521.       3520.       3520.       3520.       3519.    
        3519.       3519.       3520.       3520.       3520.       3521.       3521.       3521.       3521.       3521.    
        3521.       3519.       3519.       3519.       3520.       3520.       3520.       3521.       3521.       3521.    
        3524.       3524.       3524.       3526.       3526.       3526.       3529.       3529.       3529.       3532.    
        3532.       3532.       3532.       3535.       3535.       3535.       3536.       3536.       3536.       3536.    
        3536.       3536.       3536.       3536.       3536.       3536.       3536.       3536.       3536.       3536.    
        3536.       3537.       3537.       3537.       3538.       3538.       3538.       3537.       3537.       3537.    
        3538.       3538.       3538.       3536.       3536.       3538.       3538.       3540.       3542.       3548.    
        3550.       3550.       3550.       3551.       3553.       3554.       3554.       3551.       3550.       3551.    
        3553.       3555.       3555.       3558.       3563.       3569.    
  62    3533.       3528.       3523.       3522.       3522.       3523.       3520.       3515.       3509.       3509.    
        3505.       3499.       3496.       3494.       3500.       3500.       3501.       3501.       3501.       3499.    
        3499.       3499.       3499.       3500.       3500.       3500.       3499.       3499.       3499.       3499.    
        3499.       3499.       3500.       3500.       3500.       3500.       3500.       3500.       3500.       3500.    
        3500.       3503.       3503.       3503.       3505.       3505.       3505.       3505.       3505.       3505.    
        3504.       3504.       3504.       3505.       3505.       3505.       3504.       3504.       3504.       3505.    
        3505.       3505.       3505.       3505.       3505.       3507.       3507.       3507.       3508.       3508.    
        3508.       3512.       3512.       3512.       3512.       3514.       3514.       3514.       3514.       3514.    
        3514.       3513.       3513.       3513.       3514.       3514.       3514.       3516.       3516.       3516.    
        3519.       3519.       3519.       3519.       3519.       3519.       3520.       3520.       3520.       3522.    
        3522.       3522.       3522.       3522.       3522.       3522.       3522.       3522.       3521.       3521.    
        3521.       3520.       3520.       3520.       3520.       3520.       3520.       3522.       3522.       3522.    
        3523.       3523.       3523.       3525.       3525.       3525.       3528.       3528.       3528.       3534.    
        3534.       3534.       3534.       3538.       3538.       3538.       3539.       3539.       3539.       3540.    
        3540.       3540.       3538.       3538.       3538.       3537.       3537.       3537.       3537.       3537.    
        3537.       3536.       3536.       3536.       3536.       3536.       3536.       3537.       3537.       3537.    
        3538.       3538.       3538.       3538.       3538.       3542.       3542.       3543.       3546.       3550.    
        3551.       3551.       3551.       3552.       3555.       3558.       3558.       3556.       3556.       3558.    
        3560.       3561.       3561.       3563.       3568.       3571.    
  63    3533.       3528.       3523.       3522.       3522.       3523.       3520.       3515.       3509.       3509.    
        3505.       3499.       3496.       3494.       3500.       3500.       3501.       3501.       3501.       3499.    
        3499.       3499.       3499.       3500.       3500.       3500.       3499.       3499.       3499.       3499.    
        3499.       3499.       3500.       3500.       3500.       3500.       3500.       3500.       3500.       3500.    
        3500.       3503.       3503.       3503.       3505.       3505.       3505.       3505.       3505.       3505.    
        3504.       3504.       3504.       3505.       3505.       3505.       3504.       3504.       3504.       3505.    
        3505.       3505.       3505.       3505.       3505.       3507.       3507.       3507.       3508.       3508.    
        3508.       3512.       3512.       3512.       3512.       3514.       3514.       3514.       3514.       3514.    
        3514.       3513.       3513.       3513.       3514.       3514.       3514.       3516.       3516.       3516.    
        3519.       3519.       3519.       3519.       3519.       3519.       3520.       3520.       3520.       3522.    
        3522.       3522.       3522.       3522.       3522.       3522.       3522.       3522.       3521.       3521.    
        3521.       3520.       3520.       3520.       3520.       3520.       3520.       3522.       3522.       3522.    
        3523.       3523.       3523.       3525.       3525.       3525.       3528.       3528.       3528.       3534.    
        3534.       3534.       3534.       3538.       3538.       3538.       3539.       3539.       3539.       3540.    
        3540.       3540.       3538.       3538.       3538.       3537.       3537.       3537.       3537.       3537.    
        3537.       3536.       3536.       3536.       3536.       3536.       3536.       3537.       3537.       3537.    
        3538.       3538.       3538.       3538.       3538.       3542.       3542.       3543.       3546.       3550.    
        3551.       3551.       3551.       3552.       3555.       3558.       3558.       3556.       3556.       3558.    
        3560.       3561.       3561.       3563.       3568.       3571.    
  64    3533.       3528.       3523.       3522.       3522.       3523.       3520.       3515.       3509.       3509.    
        3505.       3499.       3496.       3494.       3500.       3500.       3501.       3501.       3501.       3499.    
        3499.       3499.       3499.       3500.       3500.       3500.       3499.       3499.       3499.       3499.    
        3499.       3499.       3500.       3500.       3500.       3500.       3500.       3500.       3500.       3500.    
        3500.       3503.       3503.       3503.       3505.       3505.       3505.       3505.       3505.       3505.    
        3504.       3504.       3504.       3505.       3505.       3505.       3504.       3504.       3504.       3505.    
        3505.       3505.       3505.       3505.       3505.       3507.       3507.       3507.       3508.       3508.    
        3508.       3512.       3512.       3512.       3512.       3514.       3514.       3514.       3514.       3514.    
        3514.       3513.       3513.       3513.       3514.       3514.       3514.       3516.       3516.       3516.    
        3519.       3519.       3519.       3519.       3519.       3519.       3520.       3520.       3520.       3522.    
        3522.       3522.       3522.       3522.       3522.       3522.       3522.       3522.       3521.       3521.    
        3521.       3520.       3520.       3520.       3520.       3520.       3520.       3522.       3522.       3522.    
        3523.       3523.       3523.       3525.       3525.       3525.       3528.       3528.       3528.       3534.    
        3534.       3534.       3534.       3538.       3538.       3538.       3539.       3539.       3539.       3540.    
        3540.       3540.       3538.       3538.       3538.       3537.       3537.       3537.       3537.       3537.    
        3537.       3536.       3536.       3536.       3536.       3536.       3536.       3537.       3537.       3537.    
        3538.       3538.       3538.       3538.       3538.       3542.       3542.       3543.       3546.       3550.    
        3551.       3551.       3551.       3552.       3555.       3558.       3558.       3556.       3556.       3558.    
        3560.       3561.       3561.       3563.       3568.       3571.    
  65    3536.       3533.       3531.       3528.       3528.       3526.       3523.       3517.       3512.       3512.    
        3507.       3497.       3493.       3493.       3498.       3498.       3500.       3500.       3500.       3500.    
        3500.       3500.       3500.       3495.       3495.       3495.       3495.       3495.       3495.       3498.    
        3498.       3498.       3500.       3500.       3500.       3501.       3501.       3501.       3504.       3504.    
        3504.       3509.       3509.       3509.       3510.       3510.       3510.       3508.       3508.       3508.    
        3506.       3506.       3506.       3506.       3506.       3506.       3507.       3507.       3507.       3509.    
        3509.       3509.       3511.       3511.       3511.       3513.       3513.       3513.       3515.       3515.    
        3515.       3515.       3515.       3515.       3515.       3514.       3514.       3514.       3513.       3513.    
        3513.       3512.       3512.       3512.       3513.       3513.       3513.       3516.       3516.       3516.    
        3518.       3518.       3518.       3521.       3521.       3521.       3523.       3523.       3523.       3524.    
        3524.       3524.       3522.       3522.       3522.       3521.       3521.       3521.       3521.       3521.    
        3521.       3521.       3521.       3521.       3522.       3522.       3522.       3523.       3523.       3523.    
        3523.       3523.       3523.       3524.       3524.       3524.       3526.       3526.       3526.       3530.    
        3530.       3530.       3530.       3533.       3533.       3533.       3535.       3535.       3535.       3536.    
        3536.       3536.       3536.       3536.       3536.       3537.       3537.       3537.       3537.       3537.    
        3537.       3538.       3538.       3538.       3539.       3539.       3539.       3540.       3540.       3540.    
        3540.       3540.       3540.       3540.       3540.       3542.       3542.       3546.       3550.       3555.    
        3557.       3557.       3557.       3555.       3560.       3566.       3566.       3567.       3566.       3566.    
        3566.       3565.       3565.       3566.       3569.       3570.    
  66    3536.       3533.       3531.       3528.       3528.       3526.       3523.       3517.       3512.       3512.    
        3507.       3497.       3493.       3493.       3498.       3498.       3500.       3500.       3500.       3500.    
        3500.       3500.       3500.       3495.       3495.       3495.       3495.       3495.       3495.       3498.    
        3498.       3498.       3500.       3500.       3500.       3501.       3501.       3501.       3504.       3504.    
        3504.       3509.       3509.       3509.       3510.       3510.       3510.       3508.       3508.       3508.    
        3506.       3506.       3506.       3506.       3506.       3506.       3507.       3507.       3507.       3509.    
        3509.       3509.       3511.       3511.       3511.       3513.       3513.       3513.       3515.       3515.    
        3515.       3515.       3515.       3515.       3515.       3514.       3514.       3514.       3513.       3513.    
        3513.       3512.       3512.       3512.       3513.       3513.       3513.       3516.       3516.       3516.    
        3518.       3518.       3518.       3521.       3521.       3521.       3523.       3523.       3523.       3524.    
        3524.       3524.       3522.       3522.       3522.       3521.       3521.       3521.       3521.       3521.    
        3521.       3521.       3521.       3521.       3522.       3522.       3522.       3523.       3523.       3523.    
        3523.       3523.       3523.       3524.       3524.       3524.       3526.       3526.       3526.       3530.    
        3530.       3530.       3530.       3533.       3533.       3533.       3535.       3535.       3535.       3536.    
        3536.       3536.       3536.       3536.       3536.       3537.       3537.       3537.       3537.       3537.    
        3537.       3538.       3538.       3538.       3539.       3539.       3539.       3540.       3540.       3540.    
        3540.       3540.       3540.       3540.       3540.       3542.       3542.       3546.       3550.       3555.    
        3557.       3557.       3557.       3555.       3560.       3566.       3566.       3567.       3566.       3566.    
        3566.       3565.       3565.       3566.       3569.       3570.    
  67    3536.       3533.       3531.       3528.       3528.       3526.       3523.       3517.       3512.       3512.    
        3507.       3497.       3493.       3493.       3498.       3498.       3500.       3500.       3500.       3500.    
        3500.       3500.       3500.       3495.       3495.       3495.       3495.       3495.       3495.       3498.    
        3498.       3498.       3500.       3500.       3500.       3501.       3501.       3501.       3504.       3504.    
        3504.       3509.       3509.       3509.       3510.       3510.       3510.       3508.       3508.       3508.    
        3506.       3506.       3506.       3506.       3506.       3506.       3507.       3507.       3507.       3509.    
        3509.       3509.       3511.       3511.       3511.       3513.       3513.       3513.       3515.       3515.    
        3515.       3515.       3515.       3515.       3515.       3514.       3514.       3514.       3513.       3513.    
        3513.       3512.       3512.       3512.       3513.       3513.       3513.       3516.       3516.       3516.    
        3518.       3518.       3518.       3521.       3521.       3521.       3523.       3523.       3523.       3524.    
        3524.       3524.       3522.       3522.       3522.       3521.       3521.       3521.       3521.       3521.    
        3521.       3521.       3521.       3521.       3522.       3522.       3522.       3523.       3523.       3523.    
        3523.       3523.       3523.       3524.       3524.       3524.       3526.       3526.       3526.       3530.    
        3530.       3530.       3530.       3533.       3533.       3533.       3535.       3535.       3535.       3536.    
        3536.       3536.       3536.       3536.       3536.       3537.       3537.       3537.       3537.       3537.    
        3537.       3538.       3538.       3538.       3539.       3539.       3539.       3540.       3540.       3540.    
        3540.       3540.       3540.       3540.       3540.       3542.       3542.       3546.       3550.       3555.    
        3557.       3557.       3557.       3555.       3560.       3566.       3566.       3567.       3566.       3566.    
        3566.       3565.       3565.       3566.       3569.       3570.    
  68    3536.       3537.       3534.       3530.       3530.       3528.       3526.       3520.       3514.       3514.    
        3507.       3498.       3494.       3495.       3497.       3497.       3500.       3500.       3500.       3498.    
        3498.       3498.       3498.       3495.       3495.       3495.       3496.       3496.       3496.       3501.    
        3501.       3501.       3503.       3503.       3503.       3504.       3504.       3504.       3507.       3507.    
        3507.       3509.       3509.       3509.       3511.       3511.       3511.       3510.       3510.       3510.    
        3508.       3508.       3508.       3505.       3505.       3505.       3504.       3504.       3504.       3503.    
        3503.       3503.       3506.       3506.       3506.       3510.       3510.       3510.       3514.       3514.    
        3514.       3517.       3517.       3517.       3517.       3518.       3518.       3518.       3516.       3516.    
        3516.       3516.       3516.       3516.       3517.       3517.       3517.       3517.       3517.       3517.    
        3519.       3519.       3519.       3522.       3522.       3522.       3524.       3524.       3524.       3523.    
        3523.       3523.       3523.       3523.       3523.       3524.       3524.       3524.       3524.       3524.    
        3524.       3524.       3524.       3524.       3525.       3525.       3525.       3526.       3526.       3526.    
        3528.       3528.       3528.       3528.       3528.       3528.       3528.       3528.       3528.       3528.    
        3528.       3528.       3528.       3529.       3529.       3529.       3532.       3532.       3532.       3533.    
        3533.       3533.       3533.       3533.       3533.       3534.       3534.       3534.       3537.       3537.    
        3537.       3537.       3537.       3537.       3538.       3538.       3538.       3540.       3540.       3540.    
        3542.       3542.       3542.       3543.       3543.       3544.       3544.       3546.       3558.       3560.    
        3561.       3561.       3561.       3561.       3561.       3564.       3564.       3569.       3569.       3566.    
        3565.       3564.       3564.       3564.       3568.       3572.    
  69    3536.       3537.       3534.       3530.       3530.       3528.       3526.       3520.       3514.       3514.    
        3507.       3498.       3494.       3495.       3497.       3497.       3500.       3500.       3500.       3498.    
        3498.       3498.       3498.       3495.       3495.       3495.       3496.       3496.       3496.       3501.    
        3501.       3501.       3503.       3503.       3503.       3504.       3504.       3504.       3507.       3507.    
        3507.       3509.       3509.       3509.       3511.       3511.       3511.       3510.       3510.       3510.    
        3508.       3508.       3508.       3505.       3505.       3505.       3504.       3504.       3504.       3503.    
        3503.       3503.       3506.       3506.       3506.       3510.       3510.       3510.       3514.       3514.    
        3514.       3517.       3517.       3517.       3517.       3518.       3518.       3518.       3516.       3516.    
        3516.       3516.       3516.       3516.       3517.       3517.       3517.       3517.       3517.       3517.    
        3519.       3519.       3519.       3522.       3522.       3522.       3524.       3524.       3524.       3523.    
        3523.       3523.       3523.       3523.       3523.       3524.       3524.       3524.       3524.       3524.    
        3524.       3524.       3524.       3524.       3525.       3525.       3525.       3526.       3526.       3526.    
        3528.       3528.       3528.       3528.       3528.       3528.       3528.       3528.       3528.       3528.    
        3528.       3528.       3528.       3529.       3529.       3529.       3532.       3532.       3532.       3533.    
        3533.       3533.       3533.       3533.       3533.       3534.       3534.       3534.       3537.       3537.    
        3537.       3537.       3537.       3537.       3538.       3538.       3538.       3540.       3540.       3540.    
        3542.       3542.       3542.       3543.       3543.       3544.       3544.       3546.       3558.       3560.    
        3561.       3561.       3561.       3561.       3561.       3564.       3564.       3569.       3569.       3566.    
        3565.       3564.       3564.       3564.       3568.       3572.    
  70    3536.       3537.       3534.       3530.       3530.       3528.       3526.       3520.       3514.       3514.    
        3507.       3498.       3494.       3495.       3497.       3497.       3500.       3500.       3500.       3498.    
        3498.       3498.       3498.       3495.       3495.       3495.       3496.       3496.       3496.       3501.    
        3501.       3501.       3503.       3503.       3503.       3504.       3504.       3504.       3507.       3507.    
        3507.       3509.       3509.       3509.       3511.       3511.       3511.       3510.       3510.       3510.    
        3508.       3508.       3508.       3505.       3505.       3505.       3504.       3504.       3504.       3503.    
        3503.       3503.       3506.       3506.       3506.       3510.       3510.       3510.       3514.       3514.    
        3514.       3517.       3517.       3517.       3517.       3518.       3518.       3518.       3516.       3516.    
        3516.       3516.       3516.       3516.       3517.       3517.       3517.       3517.       3517.       3517.    
        3519.       3519.       3519.       3522.       3522.       3522.       3524.       3524.       3524.       3523.    
        3523.       3523.       3523.       3523.       3523.       3524.       3524.       3524.       3524.       3524.    
        3524.       3524.       3524.       3524.       3525.       3525.       3525.       3526.       3526.       3526.    
        3528.       3528.       3528.       3528.       3528.       3528.       3528.       3528.       3528.       3528.    
        3528.       3528.       3528.       3529.       3529.       3529.       3532.       3532.       3532.       3533.    
        3533.       3533.       3533.       3533.       3533.       3534.       3534.       3534.       3537.       3537.    
        3537.       3537.       3537.       3537.       3538.       3538.       3538.       3540.       3540.       3540.    
        3542.       3542.       3542.       3543.       3543.       3544.       3544.       3546.       3558.       3560.    
        3561.       3561.       3561.       3561.       3561.       3564.       3564.       3569.       3569.       3566.    
        3565.       3564.       3564.       3564.       3568.       3572.    
  71    3537.       3537.       3536.       3531.       3531.       3531.       3527.       3524.       3518.       3518.    
        3512.       3501.       3498.       3500.       3500.       3500.       3502.       3502.       3502.       3499.    
        3499.       3499.       3499.       3496.       3496.       3496.       3498.       3498.       3498.       3504.    
        3504.       3504.       3503.       3503.       3503.       3503.       3503.       3503.       3507.       3507.    
        3507.       3506.       3506.       3506.       3506.       3506.       3506.       3508.       3508.       3508.    
        3507.       3507.       3507.       3504.       3504.       3504.       3505.       3505.       3505.       3508.    
        3508.       3508.       3512.       3512.       3512.       3518.       3518.       3518.       3521.       3521.    
        3521.       3522.       3522.       3522.       3522.       3523.       3523.       3523.       3525.       3525.    
        3525.       3526.       3526.       3526.       3527.       3527.       3527.       3527.       3527.       3527.    
        3527.       3527.       3527.       3526.       3526.       3526.       3527.       3527.       3527.       3526.    
        3526.       3526.       3526.       3526.       3526.       3528.       3528.       3528.       3530.       3530.    
        3530.       3532.       3532.       3532.       3532.       3532.       3532.       3532.       3532.       3532.    
        3533.       3533.       3533.       3534.       3534.       3534.       3535.       3535.       3535.       3534.    
        3534.       3534.       3534.       3534.       3534.       3534.       3534.       3534.       3534.       3537.    
        3537.       3537.       3541.       3541.       3541.       3542.       3542.       3542.       3543.       3543.    
        3543.       3543.       3543.       3543.       3544.       3544.       3544.       3545.       3545.       3545.    
        3547.       3547.       3547.       3551.       3551.       3555.       3555.       3557.       3558.       3563.    
        3564.       3564.       3563.       3563.       3563.       3565.       3565.       3570.       3571.       3573.    
        3570.       3569.       3569.       3572.       3579.       3582.    
  72    3537.       3537.       3536.       3531.       3531.       3531.       3527.       3524.       3518.       3518.    
        3512.       3501.       3498.       3500.       3500.       3500.       3502.       3502.       3502.       3499.    
        3499.       3499.       3499.       3496.       3496.       3496.       3498.       3498.       3498.       3504.    
        3504.       3504.       3503.       3503.       3503.       3503.       3503.       3503.       3507.       3507.    
        3507.       3506.       3506.       3506.       3506.       3506.       3506.       3508.       3508.       3508.    
        3507.       3507.       3507.       3504.       3504.       3504.       3505.       3505.       3505.       3508.    
        3508.       3508.       3512.       3512.       3512.       3518.       3518.       3518.       3521.       3521.    
        3521.       3522.       3522.       3522.       3522.       3523.       3523.       3523.       3525.       3525.    
        3525.       3526.       3526.       3526.       3527.       3527.       3527.       3527.       3527.       3527.    
        3527.       3527.       3527.       3526.       3526.       3526.       3527.       3527.       3527.       3526.    
        3526.       3526.       3526.       3526.       3526.       3528.       3528.       3528.       3530.       3530.    
        3530.       3532.       3532.       3532.       3532.       3532.       3532.       3532.       3532.       3532.    
        3533.       3533.       3533.       3534.       3534.       3534.       3535.       3535.       3535.       3534.    
        3534.       3534.       3534.       3534.       3534.       3534.       3534.       3534.       3534.       3537.    
        3537.       3537.       3541.       3541.       3541.       3542.       3542.       3542.       3543.       3543.    
        3543.       3543.       3543.       3543.       3544.       3544.       3544.       3545.       3545.       3545.    
        3547.       3547.       3547.       3551.       3551.       3555.       3555.       3557.       3558.       3563.    
        3564.       3564.       3563.       3563.       3563.       3565.       3565.       3570.       3571.       3573.    
        3570.       3569.       3569.       3572.       3579.       3582.    
  73    3537.       3537.       3536.       3531.       3531.       3531.       3527.       3524.       3518.       3518.    
        3512.       3501.       3498.       3500.       3500.       3500.       3502.       3502.       3502.       3499.    
        3499.       3499.       3499.       3496.       3496.       3496.       3498.       3498.       3498.       3504.    
        3504.       3504.       3503.       3503.       3503.       3503.       3503.       3503.       3507.       3507.    
        3507.       3506.       3506.       3506.       3506.       3506.       3506.       3508.       3508.       3508.    
        3507.       3507.       3507.       3504.       3504.       3504.       3505.       3505.       3505.       3508.    
        3508.       3508.       3512.       3512.       3512.       3518.       3518.       3518.       3521.       3521.    
        3521.       3522.       3522.       3522.       3522.       3523.       3523.       3523.       3525.       3525.    
        3525.       3526.       3526.       3526.       3527.       3527.       3527.       3527.       3527.       3527.    
        3527.       3527.       3527.       3526.       3526.       3526.       3527.       3527.       3527.       3526.    
        3526.       3526.       3526.       3526.       3526.       3528.       3528.       3528.       3530.       3530.    
        3530.       3532.       3532.       3532.       3532.       3532.       3532.       3532.       3532.       3532.    
        3533.       3533.       3533.       3534.       3534.       3534.       3535.       3535.       3535.       3534.    
        3534.       3534.       3534.       3534.       3534.       3534.       3534.       3534.       3534.       3537.    
        3537.       3537.       3541.       3541.       3541.       3542.       3542.       3542.       3543.       3543.    
        3543.       3543.       3543.       3543.       3544.       3544.       3544.       3545.       3545.       3545.    
        3547.       3547.       3547.       3551.       3551.       3555.       3555.       3557.       3558.       3563.    
        3564.       3564.       3563.       3563.       3563.       3565.       3565.       3570.       3571.       3573.    
        3570.       3569.       3569.       3572.       3579.       3582.    
  74    3543.       3539.       3538.       3535.       3535.       3533.       3531.       3527.       3522.       3522.    
        3518.       3509.       3503.       3503.       3503.       3503.       3499.       3499.       3499.       3501.    
        3501.       3501.       3501.       3500.       3500.       3500.       3499.       3499.       3499.       3504.    
        3504.       3504.       3506.       3506.       3506.       3507.       3507.       3507.       3506.       3506.    
        3506.       3507.       3507.       3507.       3507.       3507.       3507.       3507.       3507.       3507.    
        3508.       3508.       3508.       3507.       3507.       3507.       3509.       3509.       3509.       3513.    
        3513.       3513.       3519.       3519.       3519.       3525.       3525.       3525.       3528.       3528.    
        3528.       3532.       3532.       3532.       3532.       3534.       3534.       3534.       3535.       3535.    
        3535.       3537.       3537.       3537.       3537.       3537.       3537.       3537.       3537.       3537.    
        3537.       3537.       3537.       3538.       3538.       3538.       3538.       3538.       3538.       3540.    
        3540.       3540.       3539.       3539.       3539.       3541.       3541.       3541.       3540.       3540.    
        3540.       3541.       3541.       3541.       3541.       3541.       3541.       3542.       3542.       3542.    
        3542.       3542.       3542.       3545.       3545.       3545.       3547.       3547.       3547.       3546.    
        3546.       3546.       3546.       3545.       3545.       3545.       3545.       3545.       3545.       3547.    
        3547.       3547.       3551.       3551.       3551.       3553.       3553.       3553.       3553.       3553.    
        3553.       3552.       3552.       3552.       3553.       3553.       3553.       3554.       3554.       3554.    
        3554.       3554.       3554.       3555.       3555.       3559.       3559.       3563.       3562.       3563.    
        3568.       3568.       3569.       3570.       3570.       3570.       3570.       3570.       3571.       3572.    
        3573.       3573.       3573.       3576.       3580.       3582.    
  75    3543.       3539.       3538.       3535.       3535.       3533.       3531.       3527.       3522.       3522.    
        3518.       3509.       3503.       3503.       3503.       3503.       3499.       3499.       3499.       3501.    
        3501.       3501.       3501.       3500.       3500.       3500.       3499.       3499.       3499.       3504.    
        3504.       3504.       3506.       3506.       3506.       3507.       3507.       3507.       3506.       3506.    
        3506.       3507.       3507.       3507.       3507.       3507.       3507.       3507.       3507.       3507.    
        3508.       3508.       3508.       3507.       3507.       3507.       3509.       3509.       3509.       3513.    
        3513.       3513.       3519.       3519.       3519.       3525.       3525.       3525.       3528.       3528.    
        3528.       3532.       3532.       3532.       3532.       3534.       3534.       3534.       3535.       3535.    
        3535.       3537.       3537.       3537.       3537.       3537.       3537.       3537.       3537.       3537.    
        3537.       3537.       3537.       3538.       3538.       3538.       3538.       3538.       3538.       3540.    
        3540.       3540.       3539.       3539.       3539.       3541.       3541.       3541.       3540.       3540.    
        3540.       3541.       3541.       3541.       3541.       3541.       3541.       3542.       3542.       3542.    
        3542.       3542.       3542.       3545.       3545.       3545.       3547.       3547.       3547.       3546.    
        3546.       3546.       3546.       3545.       3545.       3545.       3545.       3545.       3545.       3547.    
        3547.       3547.       3551.       3551.       3551.       3553.       3553.       3553.       3553.       3553.    
        3553.       3552.       3552.       3552.       3553.       3553.       3553.       3554.       3554.       3554.    
        3554.       3554.       3554.       3555.       3555.       3559.       3559.       3563.       3562.       3563.    
        3568.       3568.       3569.       3570.       3570.       3570.       3570.       3570.       3571.       3572.    
        3573.       3573.       3573.       3576.       3580.       3582.    
  76    3547.       3545.       3541.       3538.       3538.       3535.       3533.       3530.       3525.       3525.    
        3520.       3514.       3508.       3505.       3503.       3503.       3495.       3495.       3495.       3500.    
        3500.       3500.       3500.       3500.       3500.       3500.       3501.       3501.       3501.       3502.    
        3502.       3502.       3504.       3504.       3504.       3504.       3504.       3504.       3506.       3506.    
        3506.       3509.       3509.       3509.       3509.       3509.       3509.       3509.       3509.       3509.    
        3509.       3509.       3509.       3511.       3511.       3511.       3514.       3514.       3514.       3520.    
        3520.       3520.       3527.       3527.       3527.       3532.       3532.       3532.       3533.       3533.    
        3533.       3535.       3535.       3535.       3535.       3538.       3538.       3538.       3539.       3539.    
        3539.       3538.       3538.       3538.       3539.       3539.       3539.       3542.       3542.       3542.    
        3543.       3543.       3543.       3543.       3543.       3543.       3543.       3543.       3543.       3545.    
        3545.       3545.       3547.       3547.       3547.       3547.       3547.       3547.       3546.       3546.    
        3546.       3545.       3545.       3545.       3547.       3547.       3547.       3547.       3547.       3547.    
        3548.       3548.       3548.       3550.       3550.       3550.       3552.       3552.       3552.       3551.    
        3551.       3551.       3551.       3551.       3551.       3551.       3552.       3552.       3552.       3552.    
        3552.       3552.       3554.       3554.       3554.       3556.       3556.       3556.       3559.       3559.    
        3559.       3559.       3559.       3559.       3560.       3560.       3560.       3561.       3561.       3561.    
        3560.       3560.       3560.       3559.       3559.       3560.       3560.       3564.       3565.       3567.    
        3568.       3568.       3575.       3577.       3576.       3575.       3575.       3574.       3573.       3574.    
        3575.       3576.       3576.       3579.       3583.       3583.    
  77    3547.       3545.       3541.       3538.       3538.       3535.       3533.       3530.       3525.       3525.    
        3520.       3514.       3508.       3505.       3503.       3503.       3495.       3495.       3495.       3500.    
        3500.       3500.       3500.       3500.       3500.       3500.       3501.       3501.       3501.       3502.    
        3502.       3502.       3504.       3504.       3504.       3504.       3504.       3504.       3506.       3506.    
        3506.       3509.       3509.       3509.       3509.       3509.       3509.       3509.       3509.       3509.    
        3509.       3509.       3509.       3511.       3511.       3511.       3514.       3514.       3514.       3520.    
        3520.       3520.       3527.       3527.       3527.       3532.       3532.       3532.       3533.       3533.    
        3533.       3535.       3535.       3535.       3535.       3538.       3538.       3538.       3539.       3539.    
        3539.       3538.       3538.       3538.       3539.       3539.       3539.       3542.       3542.       3542.    
        3543.       3543.       3543.       3543.       3543.       3543.       3543.       3543.       3543.       3545.    
        3545.       3545.       3547.       3547.       3547.       3547.       3547.       3547.       3546.       3546.    
        3546.       3545.       3545.       3545.       3547.       3547.       3547.       3547.       3547.       3547.    
        3548.       3548.       3548.       3550.       3550.       3550.       3552.       3552.       3552.       3551.    
        3551.       3551.       3551.       3551.       3551.       3551.       3552.       3552.       3552.       3552.    
        3552.       3552.       3554.       3554.       3554.       3556.       3556.       3556.       3559.       3559.    
        3559.       3559.       3559.       3559.       3560.       3560.       3560.       3561.       3561.       3561.    
        3560.       3560.       3560.       3559.       3559.       3560.       3560.       3564.       3565.       3567.    
        3568.       3568.       3575.       3577.       3576.       3575.       3575.       3574.       3573.       3574.    
        3575.       3576.       3576.       3579.       3583.       3583.    
  78    3546.       3543.       3539.       3537.       3537.       3536.       3531.       3528.       3525.       3525.    
        3521.       3517.       3509.       3507.       3508.       3508.       3504.       3504.       3504.       3501.    
        3501.       3501.       3501.       3499.       3499.       3499.       3500.       3500.       3500.       3505.    
        3505.       3505.       3504.       3504.       3504.       3503.       3503.       3503.       3506.       3506.    
        3506.       3511.       3511.       3511.       3512.       3512.       3512.       3512.       3512.       3512.    
        3510.       3510.       3510.       3514.       3514.       3514.       3518.       3518.       3518.       3524.    
        3524.       3524.       3529.       3529.       3529.       3535.       3535.       3535.       3536.       3536.    
        3536.       3536.       3536.       3536.       3536.       3537.       3537.       3537.       3540.       3540.    
        3540.       3540.       3540.       3540.       3542.       3542.       3542.       3543.       3543.       3543.    
        3540.       3540.       3540.       3540.       3540.       3540.       3543.       3543.       3543.       3545.    
        3545.       3545.       3549.       3549.       3549.       3551.       3551.       3551.       3549.       3549.    
        3549.       3547.       3547.       3547.       3546.       3546.       3546.       3548.       3548.       3548.    
        3550.       3550.       3550.       3552.       3552.       3552.       3552.       3552.       3552.       3552.    
        3552.       3552.       3552.       3553.       3553.       3553.       3554.       3554.       3554.       3555.    
        3555.       3555.       3557.       3557.       3557.       3561.       3561.       3561.       3562.       3562.    
        3562.       3562.       3562.       3562.       3563.       3563.       3563.       3563.       3563.       3563.    
        3563.       3563.       3563.       3564.       3564.       3565.       3565.       3569.       3574.       3574.    
        3575.       3575.       3575.       3580.       3578.       3579.       3579.       3577.       3577.       3580.    
        3583.       3586.       3586.       3588.       3588.       3589.    
  79    3546.       3543.       3540.       3540.       3540.       3540.       3537.       3530.       3526.       3526.    
        3523.       3519.       3512.       3508.       3504.       3504.       3498.       3498.       3498.       3497.    
        3497.       3497.       3497.       3500.       3500.       3500.       3500.       3500.       3500.       3498.    
        3498.       3498.       3500.       3500.       3500.       3501.       3501.       3501.       3504.       3504.    
        3504.       3510.       3510.       3510.       3513.       3513.       3513.       3511.       3511.       3511.    
        3510.       3510.       3510.       3516.       3516.       3516.       3523.       3523.       3523.       3526.    
        3526.       3526.       3530.       3530.       3530.       3536.       3536.       3536.       3539.       3539.    
        3539.       3538.       3538.       3538.       3538.       3537.       3537.       3537.       3539.       3539.    
        3539.       3541.       3541.       3541.       3543.       3543.       3543.       3544.       3544.       3544.    
        3542.       3542.       3542.       3544.       3544.       3544.       3548.       3548.       3548.       3552.    
        3552.       3552.       3554.       3554.       3554.       3557.       3557.       3557.       3558.       3558.    
        3558.       3557.       3557.       3557.       3555.       3555.       3555.       3557.       3557.       3557.    
        3556.       3556.       3556.       3555.       3555.       3555.       3555.       3555.       3555.       3556.    
        3556.       3556.       3556.       3559.       3559.       3559.       3559.       3559.       3559.       3560.    
        3560.       3560.       3562.       3562.       3562.       3566.       3566.       3566.       3566.       3566.    
        3566.       3565.       3565.       3565.       3564.       3564.       3564.       3562.       3562.       3562.    
        3562.       3562.       3562.       3564.       3564.       3569.       3569.       3576.       3579.       3578.    
        3578.       3578.       3580.       3582.       3582.       3583.       3583.       3583.       3580.       3583.    
        3584.       3586.       3586.       3588.       3588.       3587.    
  80    3550.       3548.       3544.       3543.       3543.       3541.       3539.       3531.       3527.       3527.    
        3524.       3520.       3515.       3507.       3499.       3499.       3494.       3494.       3494.       3493.    
        3493.       3493.       3493.       3497.       3497.       3497.       3499.       3499.       3499.       3500.    
        3500.       3500.       3503.       3503.       3503.       3504.       3504.       3504.       3504.       3504.    
        3504.       3506.       3506.       3506.       3509.       3509.       3509.       3508.       3508.       3508.    
        3509.       3509.       3509.       3516.       3516.       3516.       3525.       3525.       3525.       3527.    
        3527.       3527.       3530.       3530.       3530.       3533.       3533.       3533.       3536.       3536.    
        3536.       3536.       3536.       3536.       3536.       3538.       3538.       3538.       3540.       3540.    
        3540.       3540.       3540.       3540.       3542.       3542.       3542.       3544.       3544.       3544.    
        3548.       3548.       3548.       3547.       3547.       3547.       3553.       3553.       3553.       3556.    
        3556.       3556.       3558.       3558.       3558.       3560.       3560.       3560.       3564.       3564.    
        3564.       3565.       3565.       3565.       3563.       3563.       3563.       3562.       3562.       3562.    
        3560.       3560.       3560.       3557.       3557.       3557.       3556.       3556.       3556.       3559.    
        3559.       3559.       3559.       3564.       3564.       3564.       3567.       3567.       3567.       3568.    
        3568.       3568.       3570.       3570.       3570.       3571.       3571.       3571.       3571.       3571.    
        3571.       3570.       3570.       3570.       3570.       3570.       3570.       3568.       3568.       3568.    
        3570.       3570.       3570.       3572.       3572.       3575.       3575.       3579.       3581.       3580.    
        3582.       3582.       3583.       3582.       3581.       3583.       3583.       3582.       3582.       3582.    
        3584.       3587.       3587.       3589.       3589.       3588.    
  81    3554.       3553.       3548.       3543.       3543.       3540.       3537.       3532.       3528.       3528.    
        3527.       3523.       3517.       3509.       3499.       3499.       3495.       3495.       3495.       3496.    
        3496.       3496.       3496.       3495.       3495.       3495.       3500.       3500.       3500.       3503.    
        3503.       3503.       3503.       3503.       3503.       3504.       3504.       3504.       3505.       3505.    
        3505.       3507.       3507.       3507.       3508.       3508.       3508.       3508.       3508.       3508.    
        3511.       3511.       3511.       3517.       3517.       3517.       3524.       3524.       3524.       3524.    
        3524.       3524.       3526.       3526.       3526.       3530.       3530.       3530.       3533.       3533.    
        3533.       3536.       3536.       3536.       3536.       3539.       3539.       3539.       3542.       3542.    
        3542.       3542.       3542.       3542.       3542.       3542.       3542.       3546.       3546.       3546.    
        3551.       3551.       3551.       3554.       3554.       3554.       3556.       3556.       3556.       3557.    
        3557.       3557.       3560.       3560.       3560.       3565.       3565.       3565.       3569.       3569.    
        3569.       3572.       3572.       3572.       3571.       3571.       3571.       3566.       3566.       3566.    
        3566.       3566.       3566.       3566.       3566.       3566.       3569.       3569.       3569.       3571.    
        3571.       3571.       3571.       3575.       3575.       3575.       3576.       3576.       3576.       3574.    
        3574.       3574.       3573.       3573.       3573.       3574.       3574.       3574.       3578.       3578.    
        3578.       3581.       3581.       3581.       3582.       3582.       3582.       3581.       3581.       3581.    
        3579.       3579.       3579.       3578.       3578.       3577.       3577.       3579.       3580.       3580.    
        3580.       3580.       3580.       3580.       3581.       3587.       3587.       3590.       3592.       3590.    
        3589.       3592.       3592.       3594.       3595.       3596.    
  82    3554.       3553.       3548.       3543.       3543.       3540.       3537.       3532.       3528.       3528.    
        3527.       3523.       3517.       3509.       3499.       3499.       3495.       3495.       3495.       3496.    
        3496.       3496.       3496.       3495.       3495.       3495.       3500.       3500.       3500.       3503.    
        3503.       3503.       3503.       3503.       3503.       3504.       3504.       3504.       3505.       3505.    
        3505.       3507.       3507.       3507.       3508.       3508.       3508.       3508.       3508.       3508.    
        3511.       3511.       3511.       3517.       3517.       3517.       3524.       3524.       3524.       3524.    
        3524.       3524.       3526.       3526.       3526.       3530.       3530.       3530.       3533.       3533.    
        3533.       3536.       3536.       3536.       3536.       3539.       3539.       3539.       3542.       3542.    
        3542.       3542.       3542.       3542.       3542.       3542.       3542.       3546.       3546.       3546.    
        3551.       3551.       3551.       3554.       3554.       3554.       3556.       3556.       3559.       3557.    
        3557.       3557.       3560.       3560.       3560.       3565.       3565.       3565.       3569.       3569.    
        3569.       3572.       3572.       3572.       3571.       3571.       3571.       3566.       3566.       3566.    
        3566.       3566.       3566.       3566.       3566.       3566.       3569.       3569.       3584.       3571.    
        3571.       3571.       3571.       3575.       3575.       3575.       3576.       3576.       3576.       3574.    
        3574.       3574.       3573.       3573.       3573.       3574.       3574.       3574.       3578.       3578.    
        3578.       3581.       3581.       3581.       3582.       3582.       3582.       3580.       3581.       3581.    
        3579.       3579.       3579.       3578.       3578.       3577.       3577.       3579.       3580.       3580.    
        3580.       3580.       3580.       3580.       3581.       3587.       3587.       3590.       3592.       3590.    
        3589.       3592.       3592.       3594.       3595.       3596.    
  83    3553.       3551.       3547.       3543.       3543.       3539.       3536.       3532.       3529.       3529.    
        3528.       3525.       3520.       3509.       3502.       3502.       3495.       3495.       3495.       3492.    
        3492.       3492.       3492.       3496.       3496.       3496.       3501.       3501.       3501.       3502.    
        3502.       3502.       3505.       3505.       3505.       3506.       3506.       3506.       3507.       3507.    
        3507.       3509.       3509.       3509.       3510.       3510.       3510.       3511.       3511.       3511.    
        3512.       3512.       3512.       3517.       3517.       3517.       3524.       3524.       3524.       3526.    
        3526.       3526.       3524.       3524.       3524.       3525.       3525.       3525.       3529.       3529.    
        3529.       3533.       3533.       3533.       3533.       3537.       3537.       3537.       3540.       3540.    
        3540.       3542.       3542.       3542.       3545.       3545.       3545.       3550.       3550.       3550.    
        3555.       3555.       3555.       3558.       3558.       3558.       3559.       3559.       3559.       3559.    
        3559.       3559.       3560.       3560.       3560.       3566.       3566.       3566.       3571.       3571.    
        3571.       3574.       3574.       3574.       3576.       3576.       3576.       3575.       3575.       3575.    
        3575.       3575.       3575.       3580.       3580.       3580.       3584.       3584.       3584.       3587.    
        3587.       3587.       3587.       3585.       3585.       3585.       3582.       3582.       3582.       3580.    
        3580.       3580.       3578.       3578.       3578.       3581.       3581.       3581.       3584.       3584.    
        3584.       3582.       3582.       3582.       3581.       3581.       3581.       3580.       3580.       3580.    
        3578.       3578.       3578.       3578.       3578.       3579.       3579.       3579.       3580.       3579.    
        3580.       3580.       3580.       3581.       3585.       3587.       3587.       3599.       3603.       3606.    
        3606.       3607.       3607.       3609.       3611.       3611.    
  84    3552.       3549.       3545.       3541.       3541.       3538.       3534.       3532.       3528.       3528.    
        3526.       3522.       3518.       3512.       3503.       3503.       3495.       3495.       3495.       3495.    
        3495.       3495.       3495.       3498.       3498.       3498.       3501.       3501.       3501.       3502.    
        3502.       3502.       3503.       3503.       3503.       3504.       3504.       3504.       3506.       3506.    
        3506.       3510.       3510.       3510.       3511.       3511.       3511.       3512.       3512.       3512.    
        3511.       3511.       3511.       3518.       3518.       3518.       3531.       3531.       3531.       3534.    
        3534.       3534.       3529.       3529.       3529.       3525.       3525.       3525.       3526.       3526.    
        3526.       3531.       3531.       3531.       3531.       3534.       3534.       3534.       3537.       3537.    
        3537.       3538.       3538.       3538.       3542.       3542.       3542.       3548.       3548.       3548.    
        3556.       3556.       3556.       3557.       3557.       3557.       3557.       3557.       3557.       3558.    
        3558.       3558.       3560.       3560.       3560.       3565.       3565.       3565.       3570.       3570.    
        3570.       3576.       3576.       3576.       3578.       3578.       3578.       3578.       3578.       3578.    
        3577.       3577.       3577.       3579.       3579.       3579.       3581.       3581.       3581.       3583.    
        3583.       3583.       3583.       3585.       3585.       3585.       3588.       3588.       3588.       3588.    
        3588.       3588.       3588.       3588.       3588.       3589.       3589.       3589.       3591.       3591.    
        3591.       3592.       3592.       3592.       3588.       3588.       3588.       3583.       3583.       3583.    
        3580.       3580.       3580.       3579.       3579.       3578.       3578.       3578.       3581.       3583.    
        3584.       3584.       3585.       3588.       3593.       3598.       3598.       3599.       3608.       3608.    
        3610.       3613.       3613.       3615.       3613.       3612.    
  85    3552.       3550.       3546.       3542.       3542.       3538.       3534.       3531.       3528.       3528.    
        3526.       3522.       3516.       3510.       3504.       3504.       3497.       3497.       3497.       3498.    
        3498.       3498.       3498.       3504.       3504.       3504.       3500.       3500.       3500.       3499.    
        3499.       3499.       3500.       3500.       3500.       3502.       3502.       3502.       3506.       3506.    
        3506.       3511.       3511.       3511.       3511.       3511.       3511.       3510.       3510.       3510.    
        3513.       3513.       3513.       3519.       3519.       3519.       3533.       3533.       3533.       3536.    
        3536.       3536.       3539.       3539.       3539.       3532.       3532.       3532.       3530.       3530.    
        3530.       3534.       3534.       3534.       3534.       3536.       3536.       3536.       3536.       3536.    
        3536.       3536.       3536.       3536.       3540.       3540.       3540.       3545.       3545.       3545.    
        3552.       3552.       3552.       3558.       3558.       3558.       3557.       3557.       3557.       3557.    
        3557.       3557.       3562.       3562.       3562.       3568.       3568.       3568.       3572.       3572.    
        3572.       3574.       3574.       3574.       3577.       3577.       3577.       3582.       3582.       3582.    
        3584.       3584.       3584.       3583.       3583.       3583.       3583.       3583.       3583.       3586.    
        3586.       3586.       3586.       3589.       3589.       3589.       3592.       3592.       3592.       3593.    
        3593.       3593.       3593.       3593.       3593.       3594.       3594.       3594.       3600.       3600.    
        3600.       3601.       3601.       3601.       3600.       3600.       3600.       3594.       3594.       3594.    
        3589.       3589.       3589.       3588.       3588.       3587.       3587.       3586.       3588.       3589.    
        3589.       3589.       3592.       3596.       3600.       3605.       3605.       3608.       3608.       3613.    
        3612.       3614.       3614.       3616.       3618.       3617.    
  86    3557.       3550.       3546.       3544.       3544.       3541.       3536.       3531.       3526.       3526.    
        3521.       3516.       3510.       3505.       3501.       3501.       3501.       3501.       3501.       3505.    
        3505.       3505.       3505.       3505.       3505.       3505.       3503.       3503.       3503.       3499.    
        3499.       3499.       3500.       3500.       3500.       3503.       3503.       3503.       3507.       3507.    
        3507.       3509.       3509.       3509.       3509.       3509.       3509.       3508.       3508.       3508.    
        3512.       3512.       3512.       3517.       3517.       3517.       3530.       3530.       3530.       3545.    
        3545.       3545.       3546.       3546.       3546.       3541.       3541.       3541.       3536.       3536.    
        3536.       3538.       3538.       3538.       3538.       3537.       3537.       3537.       3538.       3538.    
        3538.       3540.       3540.       3540.       3541.       3541.       3541.       3543.       3543.       3543.    
        3547.       3547.       3547.       3553.       3553.       3553.       3558.       3558.       3558.       3561.    
        3561.       3561.       3569.       3569.       3569.       3577.       3577.       3577.       3579.       3579.    
        3579.       3578.       3578.       3578.       3581.       3581.       3581.       3585.       3585.       3585.    
        3587.       3587.       3587.       3588.       3588.       3588.       3589.       3589.       3589.       3591.    
        3591.       3591.       3591.       3593.       3593.       3593.       3595.       3595.       3595.       3594.    
        3594.       3594.       3594.       3594.       3594.       3597.       3597.       3597.       3600.       3600.    
        3600.       3600.       3600.       3600.       3602.       3602.       3602.       3603.       3603.       3603.    
        3599.       3599.       3599.       3596.       3596.       3593.       3593.       3592.       3593.       3596.    
        3597.       3597.       3599.       3601.       3601.       3603.       3603.       3609.       3612.       3613.    
        3612.       3614.       3614.       3616.       3617.       3617.    
  87    3557.       3550.       3546.       3544.       3544.       3541.       3536.       3531.       3526.       3526.    
        3521.       3516.       3510.       3505.       3501.       3501.       3501.       3501.       3501.       3505.    
        3505.       3505.       3505.       3505.       3505.       3505.       3503.       3503.       3503.       3499.    
        3499.       3499.       3500.       3500.       3500.       3503.       3503.       3503.       3507.       3507.    
        3507.       3509.       3509.       3509.       3509.       3509.       3509.       3508.       3508.       3508.    
        3512.       3512.       3512.       3517.       3517.       3517.       3530.       3530.       3530.       3545.    
        3545.       3545.       3546.       3546.       3546.       3541.       3541.       3541.       3536.       3536.    
        3536.       3538.       3538.       3538.       3538.       3537.       3537.       3537.       3538.       3538.    
        3538.       3540.       3540.       3540.       3541.       3541.       3541.       3543.       3543.       3543.    
        3547.       3547.       3547.       3553.       3553.       3553.       3558.       3558.       3558.       3561.    
        3561.       3561.       3569.       3569.       3569.       3577.       3577.       3577.       3579.       3579.    
        3579.       3578.       3578.       3578.       3581.       3581.       3581.       3585.       3585.       3585.    
        3587.       3587.       3587.       3588.       3588.       3588.       3589.       3589.       3589.       3591.    
        3591.       3591.       3591.       3593.       3593.       3593.       3595.       3595.       3595.       3594.    
        3594.       3594.       3594.       3594.       3594.       3597.       3597.       3597.       3600.       3600.    
        3600.       3600.       3600.       3600.       3602.       3602.       3602.       3603.       3603.       3603.    
        3599.       3599.       3599.       3596.       3596.       3593.       3593.       3592.       3593.       3596.    
        3597.       3597.       3599.       3601.       3601.       3603.       3603.       3609.       3612.       3613.    
        3612.       3614.       3614.       3616.       3617.       3617.    
  88    3560.       3553.       3549.       3546.       3546.       3543.       3538.       3532.       3526.       3526.    
        3520.       3516.       3508.       3505.       3506.       3506.       3500.       3500.       3500.       3504.    
        3504.       3504.       3504.       3507.       3507.       3507.       3505.       3505.       3505.       3501.    
        3501.       3501.       3502.       3502.       3502.       3505.       3505.       3505.       3506.       3506.    
        3506.       3511.       3511.       3511.       3510.       3510.       3510.       3511.       3511.       3511.    
        3513.       3513.       3513.       3518.       3518.       3518.       3531.       3531.       3531.       3545.    
        3545.       3545.       3546.       3546.       3546.       3541.       3541.       3541.       3541.       3541.    
        3541.       3540.       3540.       3540.       3540.       3537.       3537.       3537.       3537.       3537.    
        3537.       3538.       3538.       3538.       3540.       3540.       3540.       3541.       3541.       3541.    
        3542.       3542.       3542.       3545.       3545.       3545.       3551.       3551.       3551.       3561.    
        3561.       3561.       3571.       3571.       3571.       3578.       3578.       3578.       3581.       3581.    
        3581.       3582.       3582.       3582.       3584.       3584.       3584.       3585.       3585.       3585.    
        3585.       3585.       3585.       3586.       3586.       3586.       3587.       3587.       3587.       3588.    
        3588.       3588.       3588.       3589.       3589.       3589.       3593.       3593.       3593.       3596.    
        3596.       3596.       3596.       3596.       3596.       3598.       3598.       3598.       3598.       3598.    
        3598.       3600.       3600.       3600.       3602.       3602.       3602.       3605.       3605.       3605.    
        3605.       3605.       3605.       3603.       3603.       3602.       3602.       3597.       3595.       3596.    
        3598.       3598.       3601.       3603.       3603.       3603.       3603.       3606.       3609.       3611.    
        3616.       3619.       3619.       3620.       3618.       3618.    
  89    3559.       3553.       3548.       3543.       3543.       3540.       3536.       3531.       3525.       3525.    
        3519.       3514.       3512.       3507.       3508.       3508.       3506.       3506.       3506.       3508.    
        3508.       3508.       3508.       3502.       3502.       3502.       3502.       3502.       3502.       3502.    
        3502.       3502.       3504.       3504.       3504.       3504.       3504.       3504.       3507.       3507.    
        3507.       3509.       3509.       3509.       3517.       3517.       3517.       3518.       3518.       3518.    
        3517.       3517.       3517.       3521.       3521.       3521.       3529.       3529.       3529.       3543.    
        3543.       3543.       3546.       3546.       3546.       3547.       3547.       3547.       3546.       3546.    
        3546.       3543.       3543.       3543.       3543.       3539.       3539.       3539.       3539.       3539.    
        3539.       3538.       3538.       3538.       3537.       3537.       3537.       3538.       3538.       3538.    
        3540.       3540.       3540.       3546.       3546.       3546.       3551.       3551.       3551.       3556.    
        3556.       3556.       3566.       3566.       3566.       3576.       3576.       3576.       3581.       3581.    
        3581.       3581.       3581.       3581.       3586.       3586.       3586.       3586.       3586.       3586.    
        3584.       3584.       3584.       3583.       3583.       3583.       3584.       3584.       3584.       3586.    
        3586.       3586.       3586.       3591.       3591.       3591.       3594.       3594.       3594.       3596.    
        3596.       3596.       3597.       3597.       3597.       3598.       3598.       3598.       3599.       3599.    
        3599.       3603.       3603.       3603.       3603.       3603.       3603.       3607.       3607.       3607.    
        3611.       3611.       3611.       3608.       3608.       3605.       3605.       3603.       3602.       3602.    
        3599.       3599.       3599.       3601.       3603.       3605.       3605.       3609.       3612.       3616.    
        3616.       3621.       3621.       3625.       3622.       3622.    



                       INITIAL HEAD FOR LAYER   2
 READING ON UNIT   13 WITH FORMAT: (FREE)              

            1           2           3           4           5           6           7           8           9          10
           11          12          13          14          15          16          17          18          19          20
           21          22          23          24          25          26          27          28          29          30
           31          32          33          34          35          36          37          38          39          40
           41          42          43          44          45          46          47          48          49          50
           51          52          53          54          55          56          57          58          59          60
           61          62          63          64          65          66          67          68          69          70
           71          72          73          74          75          76          77          78          79          80
           81          82          83          84          85          86          87          88          89          90
           91          92          93          94          95          96          97          98          99         100
          101         102         103         104         105         106         107         108         109         110
          111         112         113         114         115         116         117         118         119         120
          121         122         123         124         125         126         127         128         129         130
          131         132         133         134         135         136         137         138         139         140
          141         142         143         144         145         146         147         148         149         150
          151         152         153         154         155         156         157         158         159         160
          161         162         163         164         165         166         167         168         169         170
          171         172         173         174         175         176         177         178         179         180
          181         182         183         184         185         186
 ........................................................................................................................
   1    3478.       3484.       3487.       3485.       3485.       3480.       3484.       3483.       3483.       3483.    
        3479.       3477.       3479.       3485.       3492.       3492.       3496.       3496.       3496.       3501.    
        3501.       3501.       3501.       3502.       3502.       3502.       3513.       3513.       3513.       3521.    
        3521.       3521.       3531.       3531.       3531.       3528.       3528.       3528.       3529.       3529.    
        3529.       3531.       3531.       3531.       3530.       3530.       3530.       3530.       3530.       3530.    
        3529.       3529.       3529.       3530.       3530.       3530.       3531.       3531.       3531.       3532.    
        3532.       3532.       3532.       3532.       3532.       3534.       3534.       3534.       3535.       3535.    
        3535.       3535.       3535.       3535.       3535.       3535.       3535.       3535.       3538.       3538.    
        3538.       3538.       3538.       3538.       3540.       3540.       3540.       3539.       3539.       3539.    
        3538.       3538.       3538.       3541.       3541.       3541.       3545.       3545.       3545.       3552.    
        3552.       3552.       3556.       3556.       3556.       3562.       3562.       3562.       3569.       3569.    
        3569.       3575.       3575.       3575.       3583.       3583.       3583.       3589.       3589.       3589.    
        3591.       3591.       3591.       3592.       3592.       3592.       3592.       3592.       3592.       3592.    
        3592.       3592.       3592.       3590.       3590.       3590.       3591.       3591.       3591.       3595.    
        3595.       3595.       3595.       3595.       3595.       3597.       3597.       3597.       3598.       3598.    
        3598.       3598.       3598.       3598.       3600.       3600.       3600.       3597.       3597.       3597.    
        3595.       3595.       3595.       3595.       3595.       3596.       3596.       3596.       3597.       3598.    
        3598.       3598.       3600.       3603.       3605.       3607.       3607.       3608.       3609.       3611.    
        3612.       3610.       3610.       3609.       3613.       3615.    
   2    3480.       3480.       3486.       3489.       3489.       3483.       3481.       3480.       3481.       3481.    
        3478.       3478.       3482.       3489.       3496.       3496.       3496.       3496.       3496.       3499.    
        3499.       3499.       3499.       3502.       3502.       3502.       3509.       3509.       3509.       3517.    
        3517.       3517.       3525.       3525.       3525.       3528.       3528.       3528.       3530.       3530.    
        3530.       3530.       3530.       3530.       3529.       3529.       3529.       3529.       3529.       3529.    
        3528.       3528.       3528.       3530.       3530.       3530.       3530.       3530.       3530.       3531.    
        3531.       3531.       3531.       3531.       3531.       3533.       3533.       3533.       3533.       3533.    
        3533.       3534.       3534.       3534.       3534.       3536.       3536.       3536.       3537.       3537.    
        3537.       3538.       3538.       3538.       3538.       3538.       3538.       3538.       3538.       3538.    
        3537.       3537.       3537.       3540.       3540.       3540.       3544.       3544.       3544.       3545.    
        3545.       3545.       3548.       3548.       3548.       3554.       3554.       3554.       3563.       3563.    
        3563.       3575.       3575.       3575.       3585.       3585.       3585.       3589.       3589.       3589.    
        3590.       3590.       3590.       3588.       3588.       3588.       3588.       3588.       3588.       3591.    
        3591.       3591.       3591.       3591.       3591.       3591.       3594.       3594.       3594.       3596.    
        3596.       3596.       3597.       3597.       3597.       3597.       3597.       3597.       3597.       3597.    
        3597.       3597.       3597.       3597.       3598.       3598.       3598.       3596.       3596.       3596.    
        3595.       3595.       3595.       3595.       3595.       3598.       3598.       3599.       3598.       3599.    
        3599.       3599.       3601.       3602.       3603.       3603.       3603.       3605.       3605.       3605.    
        3608.       3612.       3612.       3611.       3615.       3617.    
   3    3480.       3477.       3485.       3484.       3484.       3480.       3480.       3480.       3478.       3478.    
        3478.       3481.       3485.       3492.       3497.       3497.       3497.       3497.       3497.       3497.    
        3497.       3497.       3497.       3500.       3500.       3500.       3505.       3505.       3505.       3510.    
        3510.       3510.       3517.       3517.       3517.       3524.       3524.       3524.       3528.       3528.    
        3528.       3529.       3529.       3529.       3531.       3531.       3531.       3531.       3531.       3531.    
        3528.       3528.       3528.       3528.       3528.       3528.       3528.       3528.       3528.       3529.    
        3529.       3529.       3531.       3531.       3531.       3533.       3533.       3533.       3533.       3533.    
        3533.       3534.       3534.       3534.       3534.       3535.       3535.       3535.       3535.       3535.    
        3535.       3537.       3537.       3537.       3538.       3538.       3538.       3535.       3535.       3535.    
        3534.       3534.       3534.       3538.       3538.       3538.       3542.       3542.       3542.       3541.    
        3541.       3541.       3541.       3541.       3541.       3545.       3545.       3545.       3553.       3553.    
        3553.       3565.       3565.       3565.       3578.       3578.       3578.       3586.       3586.       3586.    
        3587.       3587.       3587.       3585.       3585.       3585.       3585.       3585.       3585.       3588.    
        3588.       3588.       3588.       3590.       3590.       3590.       3591.       3591.       3591.       3592.    
        3592.       3592.       3593.       3593.       3593.       3594.       3594.       3594.       3595.       3595.    
        3595.       3597.       3597.       3597.       3596.       3596.       3596.       3595.       3595.       3595.    
        3596.       3596.       3596.       3596.       3596.       3597.       3597.       3597.       3596.       3596.    
        3597.       3597.       3597.       3598.       3600.       3603.       3603.       3606.       3607.       3608.    
        3612.       3614.       3614.       3613.       3617.       3617.    
   4    3480.       3477.       3483.       3482.       3482.       3480.       3480.       3480.       3480.       3480.    
        3480.       3482.       3484.       3488.       3495.       3495.       3496.       3496.       3496.       3497.    
        3497.       3497.       3497.       3501.       3501.       3501.       3506.       3506.       3506.       3507.    
        3507.       3507.       3509.       3509.       3509.       3517.       3517.       3517.       3524.       3524.    
        3524.       3530.       3530.       3530.       3531.       3531.       3531.       3531.       3531.       3531.    
        3531.       3531.       3531.       3531.       3531.       3531.       3531.       3531.       3531.       3531.    
        3531.       3531.       3532.       3532.       3532.       3533.       3533.       3533.       3535.       3535.    
        3535.       3535.       3535.       3535.       3535.       3534.       3534.       3534.       3535.       3535.    
        3535.       3537.       3537.       3537.       3536.       3536.       3536.       3535.       3535.       3535.    
        3534.       3534.       3534.       3538.       3538.       3538.       3543.       3543.       3543.       3543.    
        3543.       3543.       3541.       3541.       3541.       3542.       3542.       3542.       3546.       3546.    
        3546.       3551.       3551.       3551.       3557.       3557.       3557.       3567.       3567.       3567.    
        3576.       3576.       3576.       3582.       3582.       3582.       3585.       3585.       3585.       3587.    
        3587.       3587.       3587.       3587.       3587.       3587.       3587.       3587.       3587.       3589.    
        3589.       3589.       3591.       3591.       3591.       3592.       3592.       3592.       3595.       3595.    
        3595.       3599.       3599.       3599.       3598.       3598.       3598.       3596.       3596.       3596.    
        3597.       3597.       3597.       3598.       3598.       3598.       3598.       3596.       3595.       3596.    
        3596.       3596.       3598.       3598.       3599.       3600.       3600.       3601.       3602.       3604.    
        3607.       3609.       3609.       3611.       3613.       3614.    
   5    3480.       3477.       3483.       3482.       3482.       3480.       3480.       3480.       3480.       3480.    
        3480.       3482.       3484.       3488.       3495.       3495.       3496.       3496.       3496.       3497.    
        3497.       3497.       3497.       3501.       3501.       3501.       3506.       3506.       3506.       3507.    
        3507.       3507.       3509.       3509.       3509.       3517.       3517.       3517.       3524.       3524.    
        3524.       3530.       3530.       3530.       3531.       3531.       3531.       3531.       3531.       3531.    
        3531.       3531.       3531.       3531.       3531.       3531.       3531.       3531.       3531.       3531.    
        3531.       3531.       3532.       3532.       3532.       3533.       3533.       3533.       3535.       3535.    
        3535.       3535.       3535.       3535.       3535.       3534.       3534.       3534.       3535.       3535.    
        3535.       3537.       3537.       3537.       3536.       3536.       3536.       3535.       3535.       3535.    
        3534.       3534.       3534.       3538.       3538.       3538.       3543.       3543.       3543.       3543.    
        3543.       3543.       3541.       3541.       3541.       3542.       3542.       3542.       3546.       3546.    
        3546.       3551.       3551.       3551.       3557.       3557.       3557.       3567.       3567.       3567.    
        3576.       3576.       3576.       3582.       3582.       3582.       3585.       3585.       3585.       3587.    
        3587.       3587.       3587.       3587.       3587.       3587.       3587.       3587.       3587.       3589.    
        3589.       3589.       3591.       3591.       3591.       3592.       3592.       3592.       3595.       3595.    
        3595.       3599.       3599.       3599.       3598.       3598.       3598.       3596.       3596.       3596.    
        3597.       3597.       3597.       3598.       3598.       3598.       3598.       3596.       3595.       3596.    
        3596.       3596.       3598.       3598.       3599.       3600.       3600.       3601.       3602.       3604.    
        3607.       3609.       3609.       3611.       3613.       3614.    
   6    3483.       3481.       3482.       3483.       3483.       3481.       3481.       3484.       3475.       3475.    
        3479.       3483.       3486.       3489.       3493.       3493.       3497.       3497.       3497.       3498.    
        3498.       3498.       3498.       3503.       3503.       3503.       3507.       3507.       3507.       3506.    
        3506.       3506.       3505.       3505.       3505.       3509.       3509.       3509.       3517.       3517.    
        3517.       3526.       3526.       3526.       3530.       3530.       3530.       3531.       3531.       3531.    
        3530.       3530.       3530.       3530.       3530.       3530.       3532.       3532.       3532.       3532.    
        3532.       3532.       3531.       3531.       3531.       3534.       3534.       3534.       3535.       3535.    
        3535.       3534.       3534.       3534.       3534.       3534.       3534.       3534.       3536.       3536.    
        3536.       3537.       3537.       3537.       3533.       3533.       3533.       3532.       3532.       3532.    
        3534.       3534.       3534.       3539.       3539.       3539.       3543.       3543.       3543.       3545.    
        3545.       3545.       3545.       3545.       3545.       3543.       3543.       3543.       3545.       3545.    
        3545.       3548.       3548.       3548.       3548.       3548.       3548.       3551.       3551.       3551.    
        3556.       3556.       3556.       3561.       3561.       3561.       3568.       3568.       3568.       3575.    
        3575.       3575.       3575.       3580.       3580.       3580.       3584.       3584.       3584.       3589.    
        3589.       3589.       3592.       3592.       3592.       3592.       3592.       3592.       3594.       3594.    
        3594.       3601.       3601.       3601.       3599.       3599.       3599.       3598.       3598.       3598.    
        3596.       3596.       3596.       3597.       3597.       3597.       3597.       3596.       3591.       3589.    
        3589.       3589.       3589.       3590.       3593.       3594.       3594.       3593.       3590.       3589.    
        3591.       3592.       3592.       3594.       3600.       3604.    
   7    3481.       3480.       3478.       3483.       3483.       3481.       3483.       3482.       3483.       3483.    
        3482.       3485.       3485.       3490.       3496.       3496.       3498.       3498.       3498.       3499.    
        3499.       3499.       3499.       3502.       3502.       3502.       3507.       3507.       3507.       3505.    
        3505.       3505.       3503.       3503.       3503.       3505.       3505.       3505.       3510.       3510.    
        3510.       3517.       3517.       3517.       3524.       3524.       3524.       3529.       3529.       3529.    
        3531.       3531.       3531.       3533.       3533.       3533.       3535.       3535.       3535.       3534.    
        3534.       3534.       3533.       3533.       3533.       3532.       3532.       3532.       3534.       3534.    
        3534.       3534.       3534.       3534.       3534.       3535.       3535.       3535.       3535.       3535.    
        3535.       3535.       3535.       3535.       3532.       3532.       3532.       3532.       3532.       3532.    
        3536.       3536.       3536.       3539.       3539.       3539.       3541.       3541.       3541.       3543.    
        3543.       3543.       3547.       3547.       3547.       3545.       3545.       3545.       3544.       3544.    
        3544.       3547.       3547.       3547.       3549.       3549.       3549.       3551.       3551.       3551.    
        3553.       3553.       3553.       3554.       3554.       3554.       3557.       3557.       3557.       3560.    
        3560.       3560.       3560.       3563.       3563.       3563.       3568.       3568.       3568.       3573.    
        3573.       3573.       3581.       3581.       3581.       3587.       3587.       3587.       3592.       3592.    
        3592.       3595.       3595.       3595.       3592.       3592.       3592.       3585.       3585.       3585.    
        3580.       3580.       3580.       3575.       3575.       3571.       3571.       3569.       3564.       3563.    
        3560.       3560.       3560.       3559.       3561.       3564.       3564.       3566.       3567.       3572.    
        3577.       3578.       3578.       3579.       3581.       3583.    
   8    3483.       3481.       3485.       3485.       3485.       3478.       3478.       3483.       3484.       3484.    
        3484.       3488.       3489.       3494.       3498.       3498.       3501.       3501.       3501.       3501.    
        3501.       3501.       3501.       3501.       3501.       3501.       3502.       3502.       3502.       3506.    
        3506.       3506.       3503.       3503.       3503.       3502.       3502.       3502.       3504.       3504.    
        3504.       3510.       3510.       3510.       3515.       3515.       3515.       3523.       3523.       3523.    
        3529.       3529.       3529.       3536.       3536.       3536.       3539.       3539.       3539.       3537.    
        3537.       3537.       3535.       3535.       3535.       3534.       3534.       3534.       3534.       3534.    
        3534.       3535.       3535.       3535.       3535.       3538.       3538.       3538.       3537.       3537.    
        3537.       3534.       3534.       3534.       3533.       3533.       3533.       3533.       3533.       3533.    
        3536.       3536.       3536.       3539.       3539.       3539.       3537.       3537.       3537.       3539.    
        3539.       3539.       3543.       3543.       3543.       3546.       3546.       3546.       3545.       3545.    
        3545.       3543.       3543.       3543.       3542.       3542.       3542.       3545.       3545.       3545.    
        3548.       3548.       3548.       3552.       3552.       3552.       3555.       3555.       3555.       3557.    
        3557.       3557.       3557.       3558.       3558.       3558.       3558.       3558.       3558.       3559.    
        3559.       3559.       3563.       3563.       3563.       3570.       3570.       3570.       3575.       3575.    
        3575.       3575.       3575.       3575.       3566.       3566.       3566.       3560.       3560.       3560.    
        3555.       3555.       3555.       3550.       3550.       3549.       3549.       3549.       3550.       3551.    
        3549.       3549.       3547.       3548.       3551.       3553.       3553.       3553.       3554.       3555.    
        3558.       3563.       3563.       3566.       3567.       3567.    
   9    3483.       3484.       3487.       3484.       3484.       3485.       3478.       3482.       3482.       3482.    
        3483.       3488.       3488.       3492.       3495.       3495.       3498.       3498.       3498.       3500.    
        3500.       3500.       3500.       3500.       3500.       3500.       3500.       3500.       3500.       3502.    
        3502.       3502.       3503.       3503.       3503.       3502.       3502.       3502.       3501.       3501.    
        3501.       3504.       3504.       3504.       3507.       3507.       3507.       3512.       3512.       3512.    
        3522.       3522.       3522.       3531.       3531.       3531.       3536.       3536.       3536.       3538.    
        3538.       3538.       3539.       3539.       3539.       3540.       3540.       3540.       3540.       3540.    
        3540.       3539.       3539.       3539.       3539.       3540.       3540.       3540.       3540.       3540.    
        3540.       3539.       3539.       3539.       3537.       3537.       3537.       3537.       3537.       3537.    
        3537.       3537.       3537.       3537.       3537.       3537.       3537.       3537.       3537.       3540.    
        3540.       3540.       3544.       3544.       3544.       3549.       3549.       3549.       3549.       3549.    
        3549.       3547.       3547.       3547.       3544.       3544.       3544.       3542.       3542.       3542.    
        3541.       3541.       3541.       3544.       3544.       3544.       3548.       3548.       3548.       3551.    
        3551.       3551.       3551.       3554.       3554.       3554.       3556.       3556.       3556.       3557.    
        3557.       3557.       3560.       3560.       3560.       3561.       3561.       3561.       3556.       3556.    
        3556.       3551.       3551.       3551.       3551.       3551.       3551.       3552.       3552.       3552.    
        3548.       3548.       3548.       3545.       3545.       3546.       3546.       3547.       3547.       3546.    
        3541.       3541.       3539.       3542.       3547.       3548.       3548.       3547.       3546.       3544.    
        3546.       3551.       3551.       3553.       3551.       3550.    
  10    3487.       3487.       3487.       3489.       3489.       3487.       3481.       3478.       3482.       3482.    
        3484.       3486.       3487.       3488.       3492.       3492.       3496.       3496.       3496.       3501.    
        3501.       3501.       3501.       3501.       3501.       3501.       3503.       3503.       3503.       3505.    
        3505.       3505.       3505.       3505.       3505.       3506.       3506.       3506.       3505.       3505.    
        3505.       3504.       3504.       3504.       3504.       3504.       3504.       3507.       3507.       3507.    
        3512.       3512.       3512.       3520.       3520.       3520.       3530.       3530.       3530.       3534.    
        3534.       3534.       3535.       3535.       3535.       3536.       3536.       3536.       3538.       3538.    
        3538.       3541.       3541.       3541.       3541.       3542.       3542.       3542.       3540.       3540.    
        3540.       3541.       3541.       3541.       3541.       3541.       3541.       3541.       3541.       3541.    
        3542.       3542.       3542.       3542.       3542.       3542.       3540.       3540.       3540.       3540.    
        3540.       3540.       3546.       3546.       3546.       3548.       3548.       3548.       3549.       3549.    
        3549.       3550.       3550.       3550.       3549.       3549.       3549.       3548.       3548.       3548.    
        3546.       3546.       3546.       3544.       3544.       3544.       3542.       3542.       3542.       3543.    
        3543.       3543.       3543.       3546.       3546.       3546.       3549.       3549.       3549.       3551.    
        3551.       3551.       3551.       3551.       3551.       3544.       3544.       3544.       3535.       3535.    
        3535.       3533.       3533.       3533.       3537.       3537.       3537.       3541.       3541.       3541.    
        3540.       3540.       3540.       3538.       3538.       3538.       3538.       3539.       3539.       3539.    
        3536.       3536.       3536.       3537.       3540.       3543.       3543.       3544.       3543.       3541.    
        3542.       3543.       3543.       3544.       3545.       3545.    
  11    3487.       3487.       3487.       3489.       3489.       3487.       3481.       3478.       3482.       3482.    
        3484.       3486.       3487.       3488.       3492.       3492.       3496.       3496.       3496.       3501.    
        3501.       3501.       3501.       3501.       3501.       3501.       3503.       3503.       3503.       3505.    
        3505.       3505.       3505.       3505.       3505.       3506.       3506.       3506.       3505.       3505.    
        3505.       3504.       3504.       3504.       3504.       3504.       3504.       3507.       3507.       3507.    
        3512.       3512.       3512.       3520.       3520.       3520.       3530.       3530.       3530.       3534.    
        3534.       3534.       3535.       3535.       3535.       3536.       3536.       3536.       3538.       3538.    
        3538.       3541.       3541.       3541.       3541.       3542.       3542.       3542.       3540.       3540.    
        3540.       3541.       3541.       3541.       3541.       3541.       3541.       3541.       3541.       3541.    
        3542.       3542.       3542.       3542.       3542.       3542.       3540.       3540.       3540.       3540.    
        3540.       3540.       3546.       3546.       3546.       3548.       3548.       3548.       3549.       3549.    
        3549.       3550.       3550.       3550.       3549.       3549.       3549.       3548.       3548.       3548.    
        3546.       3546.       3546.       3544.       3544.       3544.       3542.       3542.       3542.       3543.    
        3543.       3543.       3543.       3546.       3546.       3546.       3549.       3549.       3549.       3551.    
        3551.       3551.       3551.       3551.       3551.       3544.       3544.       3544.       3535.       3535.    
        3535.       3533.       3533.       3533.       3537.       3537.       3537.       3541.       3541.       3541.    
        3540.       3540.       3540.       3538.       3538.       3538.       3538.       3539.       3539.       3539.    
        3536.       3536.       3536.       3537.       3540.       3543.       3543.       3544.       3543.       3541.    
        3542.       3543.       3543.       3544.       3545.       3545.    
  12    3488.       3488.       3488.       3491.       3491.       3485.       3481.       3480.       3483.       3483.    
        3482.       3483.       3483.       3485.       3489.       3489.       3493.       3493.       3493.       3499.    
        3499.       3499.       3499.       3504.       3504.       3504.       3504.       3504.       3504.       3507.    
        3507.       3507.       3507.       3507.       3507.       3505.       3505.       3505.       3507.       3507.    
        3507.       3507.       3507.       3507.       3505.       3505.       3505.       3506.       3506.       3506.    
        3508.       3508.       3508.       3512.       3512.       3512.       3517.       3517.       3517.       3524.    
        3524.       3524.       3530.       3530.       3530.       3533.       3533.       3533.       3535.       3535.    
        3535.       3537.       3537.       3537.       3537.       3538.       3538.       3538.       3539.       3539.    
        3539.       3538.       3538.       3538.       3540.       3540.       3540.       3539.       3539.       3539.    
        3540.       3540.       3540.       3541.       3541.       3541.       3542.       3542.       3542.       3542.    
        3542.       3542.       3546.       3546.       3546.       3543.       3543.       3543.       3545.       3545.    
        3545.       3546.       3546.       3546.       3546.       3546.       3546.       3545.       3545.       3545.    
        3544.       3544.       3544.       3543.       3543.       3543.       3542.       3542.       3542.       3544.    
        3544.       3544.       3544.       3540.       3540.       3540.       3538.       3538.       3538.       3535.    
        3535.       3535.       3532.       3532.       3532.       3527.       3527.       3527.       3524.       3524.    
        3524.       3525.       3525.       3525.       3524.       3524.       3524.       3525.       3525.       3525.    
        3527.       3527.       3527.       3530.       3530.       3533.       3533.       3534.       3534.       3533.    
        3531.       3531.       3531.       3531.       3533.       3537.       3537.       3537.       3538.       3539.    
        3540.       3540.       3540.       3542.       3544.       3546.    
  13    3487.       3484.       3481.       3483.       3483.       3484.       3482.       3482.       3482.       3482.    
        3479.       3478.       3479.       3482.       3486.       3486.       3490.       3490.       3490.       3495.    
        3495.       3495.       3495.       3500.       3500.       3500.       3503.       3503.       3503.       3506.    
        3506.       3506.       3506.       3506.       3506.       3503.       3503.       3503.       3502.       3502.    
        3502.       3503.       3503.       3503.       3502.       3502.       3502.       3503.       3503.       3503.    
        3504.       3504.       3504.       3506.       3506.       3506.       3507.       3507.       3507.       3510.    
        3510.       3510.       3515.       3515.       3515.       3521.       3521.       3521.       3526.       3526.    
        3526.       3529.       3529.       3529.       3529.       3531.       3531.       3531.       3532.       3532.    
        3532.       3533.       3533.       3533.       3534.       3534.       3534.       3536.       3536.       3536.    
        3537.       3537.       3537.       3537.       3537.       3537.       3537.       3537.       3537.       3538.    
        3538.       3538.       3540.       3540.       3540.       3543.       3543.       3543.       3537.       3537.    
        3537.       3537.       3537.       3537.       3538.       3538.       3538.       3539.       3539.       3539.    
        3541.       3541.       3541.       3541.       3541.       3541.       3540.       3540.       3540.       3540.    
        3540.       3540.       3540.       3534.       3534.       3534.       3528.       3528.       3528.       3525.    
        3525.       3525.       3523.       3523.       3523.       3522.       3522.       3522.       3520.       3520.    
        3520.       3520.       3520.       3520.       3519.       3519.       3519.       3518.       3518.       3518.    
        3519.       3519.       3519.       3522.       3522.       3524.       3524.       3526.       3528.       3527.    
        3529.       3529.       3530.       3533.       3534.       3537.       3537.       3538.       3537.       3538.    
        3541.       3542.       3542.       3542.       3544.       3547.    
  14    3491.       3487.       3483.       3482.       3482.       3482.       3486.       3484.       3481.       3481.    
        3479.       3482.       3483.       3483.       3482.       3482.       3486.       3486.       3486.       3493.    
        3493.       3493.       3493.       3499.       3499.       3499.       3503.       3503.       3503.       3502.    
        3502.       3502.       3503.       3503.       3503.       3500.       3500.       3500.       3499.       3499.    
        3499.       3499.       3499.       3499.       3500.       3500.       3500.       3501.       3501.       3501.    
        3503.       3503.       3503.       3502.       3502.       3502.       3500.       3500.       3500.       3502.    
        3502.       3502.       3506.       3506.       3506.       3511.       3511.       3511.       3515.       3515.    
        3515.       3517.       3517.       3517.       3517.       3519.       3519.       3519.       3521.       3521.    
        3521.       3523.       3523.       3523.       3527.       3527.       3527.       3529.       3529.       3529.    
        3530.       3530.       3530.       3530.       3530.       3530.       3530.       3530.       3530.       3531.    
        3531.       3531.       3532.       3532.       3532.       3534.       3534.       3534.       3537.       3537.    
        3537.       3529.       3529.       3529.       3528.       3528.       3528.       3528.       3528.       3528.    
        3527.       3527.       3527.       3527.       3527.       3527.       3527.       3527.       3527.       3526.    
        3526.       3526.       3526.       3525.       3525.       3525.       3522.       3522.       3522.       3519.    
        3519.       3519.       3519.       3519.       3519.       3519.       3519.       3519.       3521.       3521.    
        3521.       3523.       3523.       3523.       3524.       3524.       3524.       3523.       3523.       3523.    
        3524.       3524.       3524.       3525.       3525.       3527.       3527.       3529.       3528.       3527.    
        3531.       3531.       3535.       3536.       3538.       3540.       3540.       3540.       3539.       3539.    
        3540.       3540.       3540.       3540.       3543.       3546.    
  15    3495.       3490.       3485.       3483.       3483.       3483.       3488.       3488.       3484.       3484.    
        3481.       3483.       3485.       3487.       3485.       3485.       3485.       3485.       3485.       3488.    
        3488.       3488.       3488.       3494.       3494.       3494.       3499.       3499.       3499.       3503.    
        3503.       3503.       3505.       3505.       3505.       3504.       3504.       3504.       3506.       3506.    
        3506.       3507.       3507.       3507.       3507.       3507.       3507.       3509.       3509.       3509.    
        3508.       3508.       3508.       3509.       3509.       3509.       3507.       3507.       3507.       3506.    
        3506.       3506.       3505.       3505.       3505.       3505.       3505.       3505.       3506.       3506.    
        3506.       3508.       3508.       3508.       3508.       3510.       3510.       3510.       3513.       3513.    
        3513.       3515.       3515.       3515.       3516.       3516.       3516.       3518.       3518.       3518.    
        3520.       3520.       3520.       3521.       3521.       3521.       3522.       3522.       3522.       3522.    
        3522.       3522.       3523.       3523.       3523.       3526.       3526.       3526.       3528.       3528.    
        3528.       3521.       3521.       3521.       3523.       3523.       3523.       3526.       3526.       3526.    
        3526.       3526.       3526.       3525.       3525.       3525.       3522.       3522.       3522.       3516.    
        3516.       3516.       3516.       3516.       3516.       3516.       3518.       3518.       3518.       3519.    
        3519.       3519.       3519.       3519.       3519.       3519.       3519.       3519.       3522.       3522.    
        3522.       3525.       3525.       3525.       3526.       3526.       3526.       3527.       3527.       3527.    
        3530.       3530.       3530.       3534.       3534.       3535.       3535.       3533.       3530.       3530.    
        3533.       3533.       3537.       3538.       3539.       3540.       3540.       3542.       3542.       3542.    
        3542.       3541.       3541.       3543.       3545.       3547.    
  16    3499.       3495.       3491.       3485.       3485.       3478.       3480.       3486.       3488.       3488.    
        3482.       3481.       3483.       3486.       3488.       3488.       3488.       3488.       3488.       3488.    
        3488.       3488.       3488.       3489.       3489.       3489.       3489.       3489.       3489.       3493.    
        3493.       3493.       3496.       3496.       3496.       3500.       3500.       3500.       3502.       3502.    
        3502.       3501.       3501.       3501.       3506.       3506.       3506.       3508.       3508.       3508.    
        3508.       3508.       3508.       3508.       3508.       3508.       3509.       3509.       3509.       3512.    
        3512.       3512.       3512.       3512.       3512.       3513.       3513.       3513.       3512.       3512.    
        3512.       3509.       3509.       3509.       3509.       3509.       3509.       3509.       3511.       3511.    
        3511.       3512.       3512.       3512.       3512.       3512.       3512.       3511.       3511.       3511.    
        3513.       3513.       3513.       3514.       3514.       3514.       3516.       3516.       3516.       3517.    
        3517.       3517.       3519.       3519.       3519.       3520.       3520.       3520.       3521.       3521.    
        3521.       3521.       3521.       3521.       3516.       3516.       3516.       3518.       3518.       3518.    
        3520.       3520.       3520.       3519.       3519.       3519.       3517.       3517.       3517.       3514.    
        3514.       3514.       3514.       3514.       3514.       3514.       3515.       3515.       3515.       3517.    
        3517.       3517.       3519.       3519.       3519.       3519.       3519.       3519.       3522.       3522.    
        3522.       3524.       3524.       3524.       3526.       3526.       3526.       3527.       3527.       3527.    
        3529.       3529.       3529.       3531.       3531.       3532.       3532.       3531.       3531.       3532.    
        3534.       3534.       3536.       3536.       3537.       3541.       3541.       3543.       3544.       3543.    
        3540.       3540.       3540.       3542.       3546.       3547.    
  17    3499.       3495.       3491.       3485.       3485.       3478.       3480.       3486.       3488.       3488.    
        3482.       3481.       3483.       3486.       3488.       3488.       3488.       3488.       3488.       3488.    
        3488.       3488.       3488.       3489.       3489.       3489.       3489.       3489.       3489.       3493.    
        3493.       3493.       3496.       3496.       3496.       3500.       3500.       3500.       3502.       3502.    
        3502.       3501.       3501.       3501.       3506.       3506.       3506.       3508.       3508.       3508.    
        3508.       3508.       3508.       3508.       3508.       3508.       3509.       3509.       3509.       3512.    
        3512.       3512.       3512.       3512.       3512.       3513.       3513.       3513.       3512.       3512.    
        3512.       3509.       3509.       3509.       3509.       3509.       3509.       3509.       3511.       3511.    
        3511.       3512.       3512.       3512.       3512.       3512.       3512.       3511.       3511.       3511.    
        3513.       3513.       3513.       3514.       3514.       3514.       3516.       3516.       3516.       3517.    
        3517.       3517.       3519.       3519.       3519.       3520.       3520.       3520.       3521.       3521.    
        3521.       3521.       3521.       3521.       3516.       3516.       3516.       3518.       3518.       3518.    
        3520.       3520.       3520.       3519.       3519.       3519.       3517.       3517.       3517.       3514.    
        3514.       3514.       3514.       3514.       3514.       3514.       3515.       3515.       3515.       3517.    
        3517.       3517.       3519.       3519.       3519.       3519.       3519.       3519.       3522.       3522.    
        3522.       3524.       3524.       3524.       3526.       3526.       3526.       3527.       3527.       3527.    
        3529.       3529.       3529.       3531.       3531.       3532.       3532.       3531.       3531.       3532.    
        3534.       3534.       3536.       3536.       3537.       3541.       3541.       3543.       3544.       3543.    
        3540.       3540.       3540.       3542.       3546.       3547.    
  18    3499.       3496.       3497.       3486.       3486.       3487.       3485.       3486.       3488.       3488.    
        3483.       3483.       3486.       3490.       3492.       3492.       3493.       3493.       3493.       3493.    
        3493.       3493.       3493.       3491.       3491.       3491.       3489.       3489.       3489.       3487.    
        3487.       3487.       3489.       3489.       3489.       3493.       3493.       3493.       3496.       3496.    
        3496.       3497.       3497.       3497.       3498.       3498.       3498.       3498.       3498.       3498.    
        3502.       3502.       3502.       3506.       3506.       3506.       3511.       3511.       3511.       3509.    
        3509.       3509.       3509.       3509.       3509.       3511.       3511.       3511.       3512.       3512.    
        3512.       3511.       3511.       3511.       3511.       3510.       3510.       3510.       3514.       3514.    
        3514.       3515.       3515.       3515.       3514.       3514.       3514.       3511.       3511.       3511.    
        3510.       3510.       3510.       3512.       3512.       3512.       3513.       3513.       3513.       3513.    
        3513.       3513.       3514.       3514.       3514.       3517.       3517.       3517.       3518.       3518.    
        3518.       3518.       3518.       3518.       3516.       3516.       3516.       3508.       3508.       3508.    
        3510.       3510.       3510.       3514.       3514.       3514.       3515.       3515.       3515.       3515.    
        3515.       3515.       3515.       3516.       3516.       3516.       3518.       3518.       3518.       3523.    
        3523.       3523.       3526.       3526.       3526.       3526.       3526.       3526.       3525.       3525.    
        3525.       3526.       3526.       3526.       3528.       3528.       3528.       3530.       3530.       3530.    
        3533.       3533.       3533.       3536.       3536.       3538.       3538.       3536.       3535.       3534.    
        3535.       3535.       3537.       3536.       3535.       3537.       3537.       3541.       3543.       3542.    
        3540.       3539.       3539.       3540.       3544.       3547.    
  19    3503.       3501.       3499.       3490.       3490.       3493.       3497.       3491.       3491.       3491.    
        3484.       3485.       3487.       3490.       3493.       3493.       3495.       3495.       3495.       3496.    
        3496.       3496.       3496.       3495.       3495.       3495.       3494.       3494.       3494.       3491.    
        3491.       3491.       3490.       3490.       3490.       3492.       3492.       3492.       3494.       3494.    
        3494.       3495.       3495.       3495.       3493.       3493.       3493.       3492.       3492.       3492.    
        3494.       3494.       3494.       3500.       3500.       3500.       3504.       3504.       3504.       3504.    
        3504.       3504.       3505.       3505.       3505.       3507.       3507.       3507.       3509.       3509.    
        3509.       3508.       3508.       3508.       3508.       3508.       3508.       3508.       3509.       3509.    
        3509.       3513.       3513.       3513.       3511.       3511.       3511.       3510.       3510.       3510.    
        3510.       3510.       3510.       3511.       3511.       3511.       3512.       3512.       3512.       3513.    
        3513.       3513.       3515.       3515.       3515.       3516.       3516.       3516.       3518.       3518.    
        3518.       3515.       3515.       3515.       3510.       3510.       3510.       3508.       3508.       3508.    
        3505.       3505.       3505.       3511.       3511.       3511.       3514.       3514.       3514.       3516.    
        3516.       3516.       3516.       3519.       3519.       3519.       3520.       3520.       3520.       3521.    
        3521.       3521.       3525.       3525.       3525.       3527.       3527.       3527.       3528.       3528.    
        3528.       3528.       3528.       3528.       3529.       3529.       3529.       3530.       3530.       3530.    
        3533.       3533.       3533.       3537.       3537.       3540.       3540.       3540.       3538.       3536.    
        3535.       3535.       3535.       3535.       3535.       3537.       3537.       3538.       3541.       3543.    
        3541.       3542.       3542.       3547.       3550.       3552.    
  20    3504.       3502.       3497.       3491.       3491.       3495.       3498.       3493.       3493.       3493.    
        3489.       3486.       3484.       3486.       3490.       3490.       3493.       3493.       3493.       3491.    
        3491.       3491.       3491.       3491.       3491.       3491.       3493.       3493.       3493.       3493.    
        3493.       3493.       3492.       3492.       3492.       3493.       3493.       3493.       3493.       3493.    
        3493.       3493.       3493.       3493.       3494.       3494.       3494.       3493.       3493.       3493.    
        3492.       3492.       3492.       3495.       3495.       3495.       3497.       3497.       3497.       3497.    
        3497.       3497.       3498.       3498.       3498.       3500.       3500.       3500.       3503.       3503.    
        3503.       3503.       3503.       3503.       3503.       3504.       3504.       3504.       3506.       3506.    
        3506.       3510.       3510.       3510.       3510.       3510.       3510.       3508.       3508.       3508.    
        3509.       3509.       3509.       3510.       3510.       3510.       3510.       3510.       3510.       3511.    
        3511.       3511.       3515.       3515.       3515.       3517.       3517.       3517.       3519.       3519.    
        3519.       3514.       3514.       3514.       3508.       3508.       3508.       3504.       3504.       3504.    
        3505.       3505.       3505.       3514.       3514.       3514.       3516.       3516.       3516.       3518.    
        3518.       3518.       3518.       3521.       3521.       3521.       3521.       3521.       3521.       3521.    
        3521.       3521.       3524.       3524.       3524.       3527.       3527.       3527.       3530.       3530.    
        3530.       3530.       3530.       3530.       3529.       3529.       3529.       3531.       3531.       3531.    
        3533.       3533.       3533.       3537.       3537.       3540.       3540.       3541.       3537.       3536.    
        3535.       3535.       3536.       3534.       3536.       3538.       3538.       3541.       3545.       3545.    
        3546.       3549.       3549.       3552.       3551.       3552.    
  21    3505.       3505.       3500.       3491.       3491.       3494.       3493.       3492.       3492.       3492.    
        3491.       3486.       3482.       3484.       3485.       3485.       3487.       3487.       3487.       3488.    
        3488.       3488.       3488.       3488.       3488.       3488.       3490.       3490.       3490.       3493.    
        3493.       3493.       3493.       3493.       3493.       3491.       3491.       3491.       3491.       3491.    
        3491.       3492.       3492.       3492.       3494.       3494.       3494.       3497.       3497.       3497.    
        3495.       3495.       3495.       3495.       3495.       3495.       3495.       3495.       3495.       3495.    
        3495.       3495.       3494.       3494.       3494.       3495.       3495.       3495.       3496.       3496.    
        3496.       3497.       3497.       3497.       3497.       3499.       3499.       3499.       3502.       3502.    
        3502.       3506.       3506.       3506.       3509.       3509.       3509.       3509.       3509.       3509.    
        3510.       3510.       3510.       3510.       3510.       3510.       3508.       3508.       3508.       3510.    
        3510.       3510.       3514.       3514.       3514.       3515.       3515.       3515.       3515.       3515.    
        3515.       3512.       3512.       3512.       3509.       3509.       3509.       3506.       3506.       3506.    
        3507.       3507.       3507.       3514.       3514.       3514.       3518.       3518.       3518.       3520.    
        3520.       3520.       3520.       3523.       3523.       3523.       3525.       3525.       3525.       3526.    
        3526.       3526.       3526.       3526.       3526.       3528.       3528.       3528.       3530.       3530.    
        3530.       3531.       3531.       3531.       3532.       3532.       3532.       3534.       3534.       3534.    
        3535.       3535.       3535.       3534.       3534.       3534.       3534.       3537.       3536.       3536.    
        3537.       3537.       3535.       3533.       3536.       3541.       3541.       3544.       3545.       3545.    
        3547.       3548.       3548.       3549.       3549.       3550.    
  22    3505.       3505.       3500.       3491.       3491.       3494.       3493.       3492.       3492.       3492.    
        3491.       3486.       3482.       3484.       3485.       3485.       3487.       3487.       3487.       3488.    
        3488.       3488.       3488.       3488.       3488.       3488.       3490.       3490.       3490.       3493.    
        3493.       3493.       3493.       3493.       3493.       3491.       3491.       3491.       3491.       3491.    
        3491.       3492.       3492.       3492.       3494.       3494.       3494.       3497.       3497.       3497.    
        3495.       3495.       3495.       3495.       3495.       3495.       3495.       3495.       3495.       3495.    
        3495.       3495.       3494.       3494.       3494.       3495.       3495.       3495.       3496.       3496.    
        3496.       3497.       3497.       3497.       3497.       3499.       3499.       3499.       3502.       3502.    
        3502.       3506.       3506.       3506.       3509.       3509.       3509.       3509.       3509.       3509.    
        3510.       3510.       3510.       3510.       3510.       3510.       3508.       3508.       3506.       3510.    
        3510.       3510.       3514.       3514.       3514.       3515.       3515.       3515.       3515.       3515.    
        3515.       3512.       3512.       3512.       3509.       3509.       3509.       3506.       3506.       3506.    
        3507.       3507.       3507.       3514.       3514.       3514.       3518.       3518.       3518.       3520.    
        3520.       3520.       3520.       3523.       3523.       3523.       3525.       3525.       3525.       3526.    
        3526.       3526.       3526.       3526.       3526.       3528.       3528.       3528.       3530.       3530.    
        3530.       3531.       3531.       3531.       3532.       3532.       3532.       3531.       3534.       3534.    
        3535.       3535.       3535.       3534.       3534.       3534.       3534.       3537.       3536.       3536.    
        3537.       3537.       3535.       3533.       3536.       3541.       3541.       3544.       3545.       3545.    
        3547.       3548.       3548.       3549.       3549.       3550.    
  23    3506.       3502.       3493.       3490.       3490.       3489.       3491.       3493.       3491.       3491.    
        3490.       3486.       3485.       3486.       3485.       3485.       3487.       3487.       3487.       3488.    
        3488.       3488.       3488.       3489.       3489.       3489.       3491.       3491.       3491.       3492.    
        3492.       3492.       3494.       3494.       3494.       3494.       3494.       3494.       3493.       3493.    
        3493.       3493.       3493.       3493.       3495.       3495.       3495.       3496.       3496.       3496.    
        3495.       3495.       3495.       3496.       3496.       3496.       3497.       3497.       3497.       3498.    
        3498.       3498.       3497.       3497.       3497.       3496.       3496.       3496.       3496.       3496.    
        3496.       3495.       3495.       3495.       3495.       3498.       3498.       3498.       3499.       3499.    
        3499.       3502.       3502.       3502.       3504.       3504.       3504.       3503.       3503.       3503.    
        3505.       3505.       3505.       3506.       3506.       3506.       3506.       3506.       3506.       3506.    
        3506.       3506.       3506.       3506.       3506.       3507.       3507.       3507.       3508.       3508.    
        3508.       3508.       3508.       3508.       3509.       3509.       3509.       3511.       3511.       3511.    
        3514.       3514.       3514.       3517.       3517.       3517.       3518.       3518.       3518.       3520.    
        3520.       3520.       3520.       3522.       3522.       3522.       3523.       3523.       3523.       3524.    
        3524.       3524.       3524.       3524.       3524.       3524.       3524.       3524.       3526.       3526.    
        3526.       3526.       3526.       3526.       3528.       3528.       3528.       3531.       3531.       3531.    
        3533.       3533.       3533.       3533.       3533.       3534.       3534.       3535.       3535.       3537.    
        3539.       3539.       3538.       3537.       3537.       3541.       3541.       3543.       3545.       3545.    
        3546.       3546.       3546.       3546.       3547.       3549.    
  24    3504.       3501.       3493.       3490.       3490.       3488.       3488.       3492.       3490.       3490.    
        3488.       3487.       3490.       3489.       3490.       3490.       3491.       3491.       3491.       3492.    
        3492.       3492.       3492.       3493.       3493.       3493.       3494.       3494.       3494.       3496.    
        3496.       3496.       3498.       3498.       3498.       3499.       3499.       3499.       3498.       3498.    
        3498.       3497.       3497.       3497.       3497.       3497.       3497.       3497.       3497.       3497.    
        3497.       3497.       3497.       3498.       3498.       3498.       3499.       3499.       3499.       3501.    
        3501.       3501.       3501.       3501.       3501.       3502.       3502.       3502.       3502.       3502.    
        3502.       3501.       3501.       3501.       3501.       3501.       3501.       3501.       3503.       3503.    
        3503.       3503.       3503.       3503.       3502.       3502.       3502.       3503.       3503.       3503.    
        3503.       3503.       3503.       3505.       3505.       3505.       3507.       3507.       3507.       3508.    
        3508.       3508.       3508.       3508.       3508.       3508.       3508.       3508.       3510.       3510.    
        3510.       3510.       3510.       3510.       3513.       3513.       3513.       3515.       3515.       3515.    
        3517.       3517.       3517.       3517.       3517.       3517.       3519.       3519.       3519.       3519.    
        3519.       3519.       3519.       3521.       3521.       3521.       3524.       3524.       3524.       3525.    
        3525.       3525.       3527.       3527.       3527.       3529.       3529.       3529.       3531.       3531.    
        3531.       3532.       3532.       3532.       3534.       3534.       3534.       3534.       3534.       3534.    
        3533.       3533.       3533.       3532.       3532.       3533.       3533.       3535.       3538.       3539.    
        3541.       3541.       3543.       3543.       3542.       3541.       3541.       3542.       3544.       3546.    
        3544.       3544.       3544.       3546.       3547.       3549.    
  25    3500.       3498.       3491.       3486.       3486.       3488.       3487.       3494.       3491.       3491.    
        3489.       3488.       3490.       3491.       3493.       3493.       3495.       3495.       3495.       3494.    
        3494.       3494.       3494.       3495.       3495.       3495.       3497.       3497.       3497.       3499.    
        3499.       3499.       3499.       3499.       3499.       3499.       3499.       3499.       3499.       3499.    
        3499.       3498.       3498.       3498.       3497.       3497.       3497.       3497.       3497.       3497.    
        3499.       3499.       3499.       3501.       3501.       3501.       3503.       3503.       3503.       3505.    
        3505.       3505.       3506.       3506.       3506.       3506.       3506.       3506.       3507.       3507.    
        3507.       3508.       3508.       3508.       3508.       3507.       3507.       3507.       3506.       3506.    
        3506.       3504.       3504.       3504.       3505.       3505.       3505.       3507.       3507.       3507.    
        3507.       3507.       3507.       3508.       3508.       3508.       3509.       3509.       3509.       3511.    
        3511.       3511.       3514.       3514.       3514.       3515.       3515.       3515.       3517.       3517.    
        3517.       3517.       3517.       3517.       3516.       3516.       3516.       3516.       3516.       3516.    
        3516.       3516.       3516.       3516.       3516.       3516.       3518.       3518.       3518.       3519.    
        3519.       3519.       3519.       3522.       3522.       3522.       3525.       3525.       3525.       3526.    
        3526.       3526.       3529.       3529.       3529.       3531.       3531.       3531.       3535.       3535.    
        3535.       3539.       3539.       3539.       3542.       3542.       3542.       3542.       3542.       3542.    
        3537.       3537.       3537.       3534.       3534.       3535.       3535.       3537.       3539.       3539.    
        3540.       3540.       3543.       3546.       3545.       3546.       3546.       3546.       3546.       3548.    
        3550.       3550.       3550.       3549.       3549.       3551.    
  26    3498.       3493.       3489.       3488.       3488.       3489.       3490.       3493.       3492.       3492.    
        3491.       3490.       3489.       3490.       3493.       3493.       3495.       3495.       3495.       3493.    
        3493.       3493.       3493.       3493.       3493.       3493.       3496.       3496.       3496.       3499.    
        3499.       3499.       3500.       3500.       3500.       3498.       3498.       3498.       3498.       3498.    
        3498.       3497.       3497.       3497.       3497.       3497.       3497.       3498.       3498.       3498.    
        3500.       3500.       3500.       3502.       3502.       3502.       3500.       3500.       3500.       3501.    
        3501.       3501.       3503.       3503.       3503.       3504.       3504.       3504.       3505.       3505.    
        3505.       3507.       3507.       3507.       3507.       3509.       3509.       3509.       3507.       3507.    
        3507.       3507.       3507.       3507.       3508.       3508.       3508.       3508.       3508.       3508.    
        3506.       3506.       3506.       3506.       3506.       3506.       3507.       3507.       3507.       3508.    
        3508.       3508.       3511.       3511.       3511.       3513.       3513.       3513.       3515.       3515.    
        3515.       3517.       3517.       3517.       3518.       3518.       3518.       3517.       3517.       3517.    
        3517.       3517.       3517.       3516.       3516.       3516.       3518.       3518.       3518.       3521.    
        3521.       3521.       3521.       3522.       3522.       3522.       3527.       3527.       3527.       3527.    
        3527.       3527.       3529.       3529.       3529.       3531.       3531.       3531.       3533.       3533.    
        3533.       3536.       3536.       3536.       3541.       3541.       3541.       3543.       3543.       3543.    
        3543.       3543.       3543.       3541.       3541.       3540.       3540.       3541.       3541.       3539.    
        3539.       3539.       3544.       3546.       3546.       3545.       3545.       3547.       3547.       3546.    
        3548.       3550.       3550.       3551.       3551.       3552.    
  27    3498.       3493.       3489.       3488.       3488.       3489.       3490.       3493.       3492.       3492.    
        3491.       3490.       3489.       3490.       3493.       3493.       3495.       3495.       3495.       3493.    
        3493.       3493.       3493.       3493.       3493.       3493.       3496.       3496.       3496.       3499.    
        3499.       3499.       3500.       3500.       3500.       3498.       3498.       3498.       3498.       3498.    
        3498.       3497.       3497.       3497.       3497.       3497.       3497.       3498.       3498.       3498.    
        3500.       3500.       3500.       3502.       3502.       3502.       3500.       3500.       3500.       3501.    
        3501.       3501.       3503.       3503.       3503.       3504.       3504.       3504.       3505.       3505.    
        3505.       3507.       3507.       3507.       3507.       3509.       3509.       3509.       3507.       3507.    
        3507.       3507.       3507.       3507.       3508.       3508.       3508.       3508.       3508.       3508.    
        3506.       3506.       3506.       3506.       3506.       3506.       3507.       3507.       3507.       3508.    
        3508.       3508.       3511.       3511.       3511.       3513.       3513.       3513.       3515.       3515.    
        3515.       3517.       3517.       3517.       3518.       3518.       3518.       3517.       3517.       3517.    
        3517.       3517.       3517.       3516.       3516.       3516.       3518.       3518.       3518.       3521.    
        3521.       3521.       3521.       3522.       3522.       3522.       3527.       3527.       3527.       3527.    
        3527.       3527.       3529.       3529.       3529.       3531.       3531.       3531.       3533.       3533.    
        3533.       3536.       3536.       3536.       3541.       3541.       3541.       3543.       3543.       3543.    
        3543.       3543.       3543.       3541.       3541.       3540.       3540.       3541.       3541.       3539.    
        3539.       3539.       3544.       3546.       3546.       3545.       3545.       3547.       3547.       3546.    
        3548.       3550.       3550.       3551.       3551.       3552.    
  28    3495.       3492.       3491.       3489.       3489.       3491.       3491.       3490.       3490.       3490.    
        3489.       3491.       3494.       3495.       3497.       3497.       3497.       3497.       3497.       3496.    
        3496.       3496.       3496.       3495.       3495.       3495.       3498.       3498.       3498.       3500.    
        3500.       3500.       3500.       3500.       3500.       3499.       3499.       3499.       3501.       3501.    
        3501.       3500.       3500.       3500.       3498.       3498.       3498.       3500.       3500.       3500.    
        3501.       3501.       3501.       3502.       3502.       3502.       3501.       3501.       3501.       3501.    
        3501.       3501.       3503.       3503.       3503.       3505.       3505.       3505.       3505.       3505.    
        3505.       3505.       3505.       3505.       3505.       3505.       3505.       3505.       3506.       3506.    
        3506.       3507.       3507.       3507.       3509.       3509.       3509.       3510.       3510.       3510.    
        3509.       3509.       3509.       3509.       3509.       3509.       3510.       3510.       3510.       3510.    
        3510.       3510.       3511.       3511.       3511.       3513.       3513.       3513.       3513.       3513.    
        3513.       3515.       3515.       3515.       3518.       3518.       3518.       3517.       3517.       3517.    
        3516.       3516.       3516.       3516.       3516.       3516.       3520.       3520.       3520.       3523.    
        3523.       3523.       3523.       3525.       3525.       3525.       3527.       3527.       3527.       3530.    
        3530.       3530.       3531.       3531.       3531.       3531.       3531.       3531.       3532.       3532.    
        3532.       3535.       3535.       3535.       3537.       3537.       3537.       3541.       3541.       3541.    
        3543.       3543.       3543.       3542.       3542.       3539.       3539.       3541.       3543.       3543.    
        3543.       3543.       3545.       3546.       3545.       3543.       3543.       3545.       3548.       3546.    
        3546.       3545.       3545.       3547.       3548.       3549.    
  29    3495.       3492.       3491.       3489.       3489.       3491.       3491.       3490.       3490.       3490.    
        3489.       3491.       3494.       3495.       3497.       3497.       3497.       3497.       3497.       3496.    
        3496.       3496.       3496.       3495.       3495.       3495.       3498.       3498.       3498.       3500.    
        3500.       3500.       3500.       3500.       3500.       3499.       3499.       3499.       3501.       3501.    
        3501.       3500.       3500.       3500.       3498.       3498.       3498.       3500.       3500.       3500.    
        3501.       3501.       3501.       3502.       3502.       3502.       3501.       3501.       3501.       3501.    
        3501.       3501.       3503.       3503.       3503.       3505.       3505.       3505.       3505.       3505.    
        3505.       3505.       3505.       3505.       3505.       3505.       3505.       3505.       3506.       3506.    
        3506.       3507.       3507.       3507.       3509.       3509.       3509.       3510.       3510.       3510.    
        3509.       3509.       3509.       3509.       3509.       3509.       3510.       3510.       3510.       3510.    
        3510.       3510.       3511.       3511.       3511.       3513.       3513.       3513.       3513.       3513.    
        3513.       3515.       3515.       3515.       3518.       3518.       3518.       3517.       3517.       3517.    
        3516.       3516.       3516.       3516.       3516.       3516.       3520.       3520.       3520.       3523.    
        3523.       3523.       3523.       3525.       3525.       3525.       3527.       3527.       3527.       3530.    
        3530.       3530.       3531.       3531.       3531.       3531.       3531.       3531.       3532.       3532.    
        3532.       3535.       3535.       3535.       3537.       3537.       3537.       3541.       3541.       3541.    
        3543.       3543.       3543.       3542.       3542.       3539.       3539.       3541.       3543.       3543.    
        3543.       3543.       3545.       3546.       3545.       3543.       3543.       3545.       3548.       3546.    
        3546.       3545.       3545.       3547.       3548.       3549.    
  30    3495.       3492.       3491.       3489.       3489.       3491.       3491.       3490.       3490.       3490.    
        3489.       3491.       3494.       3495.       3497.       3497.       3497.       3497.       3497.       3496.    
        3496.       3496.       3496.       3495.       3495.       3495.       3498.       3498.       3498.       3500.    
        3500.       3500.       3500.       3500.       3500.       3499.       3499.       3499.       3501.       3501.    
        3501.       3500.       3500.       3500.       3498.       3498.       3498.       3500.       3500.       3500.    
        3501.       3501.       3501.       3502.       3502.       3502.       3501.       3501.       3501.       3501.    
        3501.       3501.       3503.       3503.       3503.       3505.       3505.       3505.       3505.       3505.    
        3505.       3505.       3505.       3505.       3505.       3505.       3505.       3505.       3506.       3506.    
        3506.       3507.       3507.       3507.       3509.       3509.       3509.       3510.       3510.       3510.    
        3509.       3509.       3509.       3509.       3509.       3509.       3510.       3510.       3510.       3510.    
        3510.       3510.       3511.       3511.       3511.       3513.       3513.       3513.       3513.       3513.    
        3513.       3515.       3515.       3515.       3518.       3518.       3518.       3517.       3517.       3517.    
        3516.       3516.       3516.       3516.       3516.       3516.       3520.       3520.       3520.       3523.    
        3523.       3523.       3523.       3525.       3525.       3525.       3527.       3527.       3527.       3530.    
        3530.       3530.       3531.       3531.       3531.       3531.       3531.       3531.       3532.       3532.    
        3532.       3535.       3535.       3535.       3537.       3537.       3537.       3541.       3541.       3541.    
        3543.       3543.       3543.       3542.       3542.       3539.       3539.       3541.       3543.       3543.    
        3543.       3543.       3545.       3546.       3545.       3543.       3543.       3545.       3548.       3546.    
        3546.       3545.       3545.       3547.       3548.       3549.    
  31    3497.       3495.       3494.       3492.       3492.       3492.       3491.       3491.       3488.       3488.    
        3487.       3490.       3497.       3501.       3500.       3500.       3497.       3497.       3497.       3497.    
        3497.       3497.       3497.       3498.       3498.       3498.       3503.       3503.       3503.       3503.    
        3503.       3503.       3500.       3500.       3500.       3499.       3499.       3499.       3500.       3500.    
        3500.       3499.       3499.       3499.       3499.       3499.       3499.       3502.       3502.       3502.    
        3504.       3504.       3504.       3503.       3503.       3503.       3502.       3502.       3502.       3502.    
        3502.       3502.       3503.       3503.       3503.       3505.       3505.       3505.       3506.       3506.    
        3506.       3507.       3507.       3507.       3507.       3507.       3507.       3507.       3507.       3507.    
        3507.       3508.       3508.       3508.       3510.       3510.       3510.       3511.       3511.       3511.    
        3511.       3511.       3511.       3511.       3511.       3511.       3512.       3512.       3512.       3513.    
        3513.       3513.       3512.       3512.       3512.       3511.       3511.       3511.       3513.       3513.    
        3513.       3516.       3516.       3516.       3517.       3517.       3517.       3516.       3516.       3516.    
        3517.       3517.       3517.       3520.       3520.       3520.       3522.       3522.       3522.       3522.    
        3522.       3522.       3522.       3522.       3522.       3522.       3526.       3526.       3526.       3530.    
        3530.       3530.       3530.       3530.       3530.       3529.       3529.       3529.       3530.       3530.    
        3530.       3533.       3533.       3533.       3538.       3538.       3538.       3541.       3541.       3541.    
        3541.       3541.       3541.       3539.       3539.       3539.       3539.       3540.       3543.       3545.    
        3546.       3546.       3544.       3544.       3544.       3544.       3544.       3545.       3548.       3548.    
        3547.       3549.       3549.       3550.       3550.       3549.    
  32    3497.       3495.       3494.       3492.       3492.       3492.       3491.       3491.       3488.       3488.    
        3487.       3490.       3497.       3501.       3500.       3500.       3497.       3497.       3497.       3497.    
        3497.       3497.       3497.       3498.       3498.       3498.       3503.       3503.       3503.       3503.    
        3503.       3503.       3500.       3500.       3500.       3499.       3499.       3499.       3500.       3500.    
        3500.       3499.       3499.       3499.       3499.       3499.       3499.       3502.       3502.       3502.    
        3504.       3504.       3504.       3503.       3503.       3503.       3502.       3502.       3502.       3502.    
        3502.       3502.       3503.       3503.       3503.       3505.       3505.       3505.       3506.       3506.    
        3506.       3507.       3507.       3507.       3507.       3507.       3507.       3507.       3507.       3507.    
        3507.       3508.       3508.       3508.       3510.       3510.       3510.       3511.       3511.       3511.    
        3511.       3511.       3511.       3511.       3511.       3511.       3512.       3512.       3512.       3513.    
        3513.       3513.       3512.       3512.       3512.       3511.       3511.       3511.       3513.       3513.    
        3513.       3516.       3516.       3516.       3517.       3517.       3517.       3516.       3516.       3516.    
        3517.       3517.       3517.       3520.       3520.       3520.       3522.       3522.       3522.       3522.    
        3522.       3522.       3522.       3522.       3522.       3522.       3526.       3526.       3526.       3530.    
        3530.       3530.       3530.       3530.       3530.       3529.       3529.       3529.       3530.       3530.    
        3530.       3533.       3533.       3533.       3538.       3538.       3538.       3541.       3541.       3541.    
        3541.       3541.       3541.       3539.       3539.       3539.       3539.       3540.       3543.       3545.    
        3546.       3546.       3544.       3544.       3544.       3544.       3544.       3545.       3548.       3548.    
        3547.       3549.       3549.       3550.       3550.       3549.    
  33    3497.       3495.       3494.       3492.       3492.       3492.       3491.       3491.       3488.       3488.    
        3487.       3490.       3497.       3501.       3500.       3500.       3497.       3497.       3497.       3497.    
        3497.       3497.       3497.       3498.       3498.       3498.       3503.       3503.       3503.       3503.    
        3503.       3503.       3500.       3500.       3500.       3499.       3499.       3499.       3500.       3500.    
        3500.       3499.       3499.       3499.       3499.       3499.       3499.       3502.       3502.       3502.    
        3504.       3504.       3504.       3503.       3503.       3503.       3502.       3502.       3502.       3502.    
        3502.       3502.       3503.       3503.       3503.       3505.       3505.       3505.       3506.       3506.    
        3506.       3507.       3507.       3507.       3507.       3507.       3507.       3507.       3507.       3507.    
        3507.       3508.       3508.       3508.       3510.       3510.       3510.       3511.       3511.       3511.    
        3511.       3511.       3511.       3511.       3511.       3511.       3512.       3512.       3512.       3513.    
        3513.       3513.       3512.       3512.       3512.       3511.       3511.       3511.       3513.       3513.    
        3513.       3516.       3516.       3516.       3517.       3517.       3517.       3516.       3516.       3516.    
        3517.       3517.       3517.       3520.       3520.       3520.       3522.       3522.       3522.       3522.    
        3522.       3522.       3522.       3522.       3522.       3522.       3526.       3526.       3526.       3530.    
        3530.       3530.       3530.       3530.       3530.       3529.       3529.       3529.       3530.       3530.    
        3530.       3533.       3533.       3533.       3538.       3538.       3538.       3541.       3541.       3541.    
        3541.       3541.       3541.       3539.       3539.       3539.       3539.       3540.       3543.       3545.    
        3546.       3546.       3544.       3544.       3544.       3544.       3544.       3545.       3548.       3548.    
        3547.       3549.       3549.       3550.       3550.       3549.    
  34    3504.       3498.       3496.       3493.       3493.       3493.       3493.       3488.       3488.       3488.    
        3486.       3489.       3494.       3498.       3497.       3497.       3497.       3497.       3497.       3494.    
        3494.       3494.       3494.       3494.       3494.       3494.       3500.       3500.       3500.       3502.    
        3502.       3502.       3500.       3500.       3500.       3499.       3499.       3499.       3502.       3502.    
        3502.       3504.       3504.       3504.       3502.       3502.       3502.       3501.       3501.       3501.    
        3502.       3502.       3502.       3504.       3504.       3504.       3503.       3503.       3503.       3504.    
        3504.       3504.       3506.       3506.       3506.       3508.       3508.       3508.       3511.       3511.    
        3511.       3510.       3510.       3510.       3510.       3511.       3511.       3511.       3511.       3511.    
        3511.       3511.       3511.       3511.       3510.       3510.       3510.       3511.       3511.       3511.    
        3512.       3512.       3512.       3513.       3513.       3513.       3514.       3514.       3514.       3515.    
        3515.       3515.       3515.       3515.       3515.       3516.       3516.       3516.       3518.       3518.    
        3518.       3521.       3521.       3521.       3521.       3521.       3521.       3521.       3521.       3521.    
        3523.       3523.       3523.       3525.       3525.       3525.       3524.       3524.       3524.       3520.    
        3520.       3520.       3520.       3520.       3520.       3520.       3524.       3524.       3524.       3529.    
        3529.       3529.       3530.       3530.       3530.       3530.       3530.       3530.       3531.       3531.    
        3531.       3530.       3530.       3530.       3531.       3531.       3531.       3535.       3535.       3535.    
        3537.       3537.       3537.       3539.       3539.       3540.       3540.       3542.       3544.       3544.    
        3546.       3546.       3546.       3546.       3545.       3546.       3546.       3551.       3553.       3551.    
        3550.       3551.       3551.       3552.       3553.       3553.    
  35    3504.       3498.       3496.       3493.       3493.       3493.       3493.       3488.       3488.       3488.    
        3486.       3489.       3494.       3498.       3497.       3497.       3497.       3497.       3497.       3494.    
        3494.       3494.       3494.       3494.       3494.       3494.       3500.       3500.       3500.       3502.    
        3502.       3502.       3500.       3500.       3500.       3499.       3499.       3499.       3502.       3502.    
        3502.       3504.       3504.       3504.       3502.       3502.       3502.       3501.       3501.       3501.    
        3502.       3502.       3502.       3504.       3504.       3504.       3503.       3503.       3503.       3504.    
        3504.       3504.       3506.       3506.       3506.       3508.       3508.       3508.       3511.       3511.    
        3511.       3510.       3510.       3510.       3510.       3511.       3511.       3511.       3511.       3511.    
        3511.       3511.       3511.       3511.       3510.       3510.       3510.       3511.       3511.       3511.    
        3512.       3512.       3512.       3513.       3513.       3513.       3514.       3514.       3514.       3515.    
        3515.       3515.       3515.       3515.       3515.       3516.       3516.       3516.       3518.       3518.    
        3518.       3521.       3521.       3521.       3521.       3521.       3521.       3521.       3521.       3521.    
        3523.       3523.       3523.       3525.       3525.       3525.       3524.       3524.       3524.       3520.    
        3520.       3520.       3520.       3520.       3520.       3520.       3524.       3524.       3524.       3529.    
        3529.       3529.       3530.       3530.       3530.       3530.       3530.       3530.       3531.       3531.    
        3531.       3530.       3530.       3530.       3531.       3531.       3531.       3535.       3535.       3535.    
        3537.       3537.       3537.       3539.       3539.       3540.       3540.       3542.       3544.       3544.    
        3546.       3546.       3546.       3546.       3545.       3546.       3546.       3551.       3553.       3551.    
        3550.       3551.       3551.       3552.       3553.       3553.    
  36    3504.       3498.       3496.       3493.       3493.       3493.       3493.       3488.       3488.       3488.    
        3486.       3489.       3494.       3498.       3497.       3497.       3497.       3497.       3497.       3494.    
        3494.       3494.       3494.       3494.       3494.       3494.       3500.       3500.       3500.       3502.    
        3502.       3502.       3500.       3500.       3500.       3499.       3499.       3499.       3502.       3502.    
        3502.       3504.       3504.       3504.       3502.       3502.       3502.       3501.       3501.       3501.    
        3502.       3502.       3502.       3504.       3504.       3504.       3503.       3503.       3503.       3504.    
        3504.       3504.       3506.       3506.       3506.       3508.       3508.       3508.       3511.       3511.    
        3511.       3510.       3510.       3510.       3510.       3511.       3511.       3511.       3511.       3511.    
        3511.       3511.       3511.       3511.       3510.       3510.       3510.       3511.       3511.       3511.    
        3512.       3512.       3512.       3513.       3513.       3513.       3514.       3514.       3514.       3515.    
        3515.       3515.       3515.       3515.       3515.       3516.       3516.       3516.       3518.       3518.    
        3518.       3521.       3521.       3521.       3521.       3521.       3521.       3521.       3521.       3521.    
        3523.       3523.       3523.       3525.       3525.       3525.       3524.       3524.       3524.       3524.    
        3520.       3520.       3520.       3520.       3520.       3520.       3524.       3524.       3524.       3529.    
        3529.       3529.       3530.       3530.       3530.       3530.       3530.       3530.       3531.       3531.    
        3531.       3530.       3530.       3530.       3531.       3531.       3531.       3535.       3535.       3535.    
        3537.       3537.       3537.       3539.       3539.       3540.       3540.       3542.       3544.       3544.    
        3546.       3546.       3546.       3546.       3545.       3546.       3546.       3551.       3553.       3551.    
        3550.       3551.       3551.       3552.       3553.       3553.    
  37    3509.       3504.       3498.       3496.       3496.       3496.       3494.       3491.       3490.       3490.    
        3487.       3488.       3493.       3494.       3494.       3494.       3496.       3496.       3496.       3493.    
        3493.       3493.       3493.       3491.       3491.       3491.       3494.       3494.       3494.       3496.    
        3496.       3496.       3497.       3497.       3497.       3497.       3497.       3497.       3500.       3500.    
        3500.       3502.       3502.       3502.       3501.       3501.       3501.       3502.       3502.       3502.    
        3504.       3504.       3504.       3505.       3505.       3505.       3507.       3507.       3507.       3508.    
        3508.       3508.       3510.       3510.       3510.       3511.       3511.       3511.       3512.       3512.    
        3512.       3511.       3511.       3511.       3511.       3511.       3511.       3511.       3511.       3511.    
        3511.       3512.       3512.       3512.       3512.       3512.       3512.       3512.       3512.       3512.    
        3514.       3514.       3514.       3515.       3515.       3515.       3516.       3516.       3516.       3517.    
        3517.       3517.       3517.       3517.       3517.       3518.       3518.       3518.       3518.       3518.    
        3518.       3519.       3519.       3519.       3520.       3520.       3520.       3521.       3521.       3521.    
        3522.       3522.       3522.       3525.       3525.       3525.       3526.       3526.       3526.       3525.    
        3525.       3525.       3525.       3524.       3524.       3524.       3527.       3527.       3527.       3529.    
        3529.       3529.       3530.       3530.       3530.       3530.       3530.       3530.       3530.       3530.    
        3530.       3530.       3530.       3530.       3529.       3529.       3529.       3531.       3531.       3531.    
        3533.       3533.       3533.       3538.       3538.       3541.       3541.       3540.       3540.       3542.    
        3544.       3544.       3545.       3549.       3550.       3552.       3552.       3552.       3553.       3550.    
        3549.       3551.       3551.       3551.       3553.       3555.    
  38    3509.       3504.       3498.       3496.       3496.       3496.       3494.       3491.       3490.       3490.    
        3487.       3488.       3493.       3494.       3494.       3494.       3496.       3496.       3496.       3493.    
        3493.       3493.       3493.       3491.       3491.       3491.       3494.       3494.       3494.       3496.    
        3496.       3496.       3497.       3497.       3497.       3497.       3497.       3497.       3500.       3500.    
        3500.       3502.       3502.       3502.       3501.       3501.       3501.       3502.       3502.       3502.    
        3504.       3504.       3504.       3505.       3505.       3505.       3507.       3507.       3507.       3508.    
        3508.       3508.       3510.       3510.       3510.       3511.       3511.       3511.       3512.       3512.    
        3512.       3511.       3511.       3511.       3511.       3511.       3511.       3511.       3511.       3511.    
        3511.       3512.       3512.       3512.       3512.       3512.       3512.       3512.       3512.       3512.    
        3514.       3514.       3514.       3515.       3515.       3515.       3516.       3516.       3516.       3517.    
        3517.       3517.       3517.       3517.       3517.       3518.       3518.       3518.       3518.       3518.    
        3518.       3519.       3519.       3519.       3520.       3520.       3520.       3521.       3521.       3521.    
        3522.       3522.       3522.       3525.       3525.       3525.       3526.       3526.       3526.       3525.    
        3525.       3525.       3525.       3524.       3524.       3524.       3527.       3527.       3527.       3529.    
        3529.       3529.       3530.       3530.       3530.       3530.       3530.       3530.       3530.       3530.    
        3530.       3530.       3530.       3530.       3529.       3529.       3529.       3531.       3531.       3531.    
        3533.       3533.       3533.       3538.       3538.       3541.       3541.       3540.       3540.       3542.    
        3544.       3544.       3545.       3549.       3550.       3552.       3552.       3552.       3553.       3550.    
        3549.       3551.       3551.       3551.       3553.       3555.    
  39    3509.       3504.       3498.       3496.       3496.       3496.       3494.       3491.       3490.       3490.    
        3487.       3488.       3493.       3494.       3494.       3494.       3496.       3496.       3496.       3493.    
        3493.       3493.       3493.       3491.       3491.       3491.       3494.       3494.       3494.       3496.    
        3496.       3496.       3497.       3497.       3497.       3497.       3497.       3497.       3500.       3500.    
        3500.       3502.       3502.       3502.       3501.       3501.       3501.       3502.       3502.       3502.    
        3504.       3504.       3504.       3505.       3505.       3505.       3507.       3507.       3507.       3508.    
        3508.       3508.       3510.       3510.       3510.       3511.       3511.       3511.       3512.       3512.    
        3512.       3511.       3511.       3511.       3511.       3511.       3511.       3511.       3511.       3511.    
        3511.       3512.       3512.       3512.       3512.       3512.       3512.       3512.       3512.       3512.    
        3514.       3514.       3514.       3515.       3515.       3515.       3516.       3516.       3516.       3517.    
        3517.       3517.       3517.       3517.       3517.       3518.       3518.       3518.       3518.       3518.    
        3518.       3519.       3519.       3519.       3520.       3520.       3520.       3521.       3521.       3521.    
        3522.       3522.       3522.       3525.       3525.       3525.       3526.       3526.       3526.       3525.    
        3525.       3525.       3525.       3524.       3524.       3524.       3527.       3527.       3527.       3529.    
        3529.       3529.       3530.       3530.       3530.       3530.       3530.       3530.       3530.       3530.    
        3530.       3530.       3530.       3530.       3529.       3529.       3529.       3531.       3531.       3531.    
        3533.       3533.       3533.       3538.       3538.       3541.       3541.       3540.       3540.       3542.    
        3544.       3544.       3545.       3549.       3550.       3552.       3552.       3552.       3553.       3550.    
        3549.       3551.       3551.       3551.       3553.       3555.    
  40    3518.       3512.       3504.       3497.       3497.       3497.       3496.       3496.       3490.       3490.    
        3493.       3495.       3489.       3493.       3495.       3495.       3493.       3493.       3493.       3495.    
        3495.       3495.       3495.       3490.       3490.       3490.       3490.       3490.       3490.       3493.    
        3493.       3493.       3494.       3494.       3494.       3499.       3499.       3499.       3501.       3501.    
        3501.       3502.       3502.       3502.       3501.       3501.       3501.       3501.       3501.       3501.    
        3501.       3501.       3501.       3504.       3504.       3504.       3505.       3505.       3505.       3506.    
        3506.       3506.       3506.       3506.       3506.       3507.       3507.       3507.       3506.       3506.    
        3506.       3506.       3506.       3506.       3506.       3508.       3508.       3508.       3509.       3509.    
        3509.       3509.       3509.       3509.       3509.       3509.       3509.       3510.       3510.       3510.    
        3514.       3514.       3514.       3515.       3515.       3515.       3515.       3515.       3515.       3515.    
        3515.       3515.       3517.       3517.       3517.       3516.       3516.       3516.       3516.       3516.    
        3516.       3516.       3516.       3516.       3516.       3516.       3516.       3517.       3517.       3517.    
        3519.       3519.       3519.       3521.       3521.       3521.       3522.       3522.       3522.       3523.    
        3523.       3523.       3523.       3523.       3523.       3523.       3523.       3523.       3523.       3526.    
        3526.       3526.       3529.       3529.       3529.       3531.       3531.       3531.       3531.       3531.    
        3531.       3532.       3532.       3532.       3533.       3533.       3533.       3534.       3534.       3534.    
        3536.       3536.       3536.       3540.       3540.       3540.       3540.       3540.       3542.       3545.    
        3544.       3544.       3544.       3547.       3545.       3550.       3550.       3552.       3552.       3550.    
        3548.       3549.       3549.       3550.       3552.       3554.    
  41    3518.       3512.       3504.       3497.       3497.       3497.       3496.       3496.       3490.       3490.    
        3493.       3495.       3489.       3493.       3495.       3495.       3493.       3493.       3493.       3495.    
        3495.       3495.       3495.       3490.       3490.       3490.       3490.       3490.       3490.       3493.    
        3493.       3493.       3494.       3494.       3494.       3499.       3499.       3499.       3501.       3501.    
        3501.       3502.       3502.       3502.       3501.       3501.       3501.       3501.       3501.       3501.    
        3501.       3501.       3501.       3504.       3504.       3504.       3505.       3505.       3505.       3506.    
        3506.       3506.       3506.       3506.       3506.       3507.       3507.       3507.       3506.       3506.    
        3506.       3506.       3506.       3506.       3506.       3508.       3508.       3508.       3509.       3509.    
        3509.       3509.       3509.       3509.       3509.       3509.       3509.       3510.       3510.       3510.    
        3514.       3514.       3514.       3515.       3515.       3515.       3515.       3515.       3515.       3515.    
        3515.       3515.       3517.       3517.       3517.       3516.       3516.       3516.       3516.       3516.    
        3516.       3516.       3516.       3516.       3516.       3516.       3516.       3517.       3517.       3517.    
        3519.       3519.       3519.       3521.       3521.       3521.       3522.       3522.       3522.       3523.    
        3523.       3523.       3523.       3523.       3523.       3523.       3523.       3523.       3523.       3526.    
        3526.       3526.       3529.       3529.       3529.       3531.       3531.       3531.       3531.       3531.    
        3531.       3532.       3532.       3532.       3533.       3533.       3533.       3534.       3534.       3534.    
        3536.       3536.       3536.       3540.       3540.       3540.       3540.       3540.       3542.       3545.    
        3544.       3544.       3544.       3547.       3545.       3550.       3550.       3552.       3552.       3550.    
        3548.       3549.       3549.       3550.       3552.       3554.    
  42    3518.       3512.       3504.       3497.       3497.       3497.       3496.       3496.       3490.       3490.    
        3493.       3495.       3489.       3493.       3495.       3495.       3493.       3493.       3493.       3495.    
        3495.       3495.       3495.       3490.       3490.       3490.       3490.       3490.       3490.       3493.    
        3493.       3493.       3494.       3494.       3494.       3499.       3499.       3499.       3501.       3501.    
        3501.       3502.       3502.       3502.       3501.       3501.       3501.       3501.       3501.       3501.    
        3501.       3501.       3501.       3504.       3504.       3504.       3505.       3505.       3505.       3506.    
        3506.       3506.       3506.       3506.       3506.       3507.       3507.       3507.       3506.       3506.    
        3506.       3506.       3506.       3506.       3506.       3508.       3508.       3508.       3509.       3509.    
        3509.       3509.       3509.       3509.       3509.       3509.       3509.       3510.       3510.       3510.    
        3514.       3514.       3514.       3515.       3515.       3515.       3515.       3515.       3515.       3515.    
        3515.       3515.       3517.       3517.       3517.       3516.       3516.       3516.       3516.       3516.    
        3516.       3516.       3516.       3516.       3516.       3516.       3516.       3517.       3517.       3517.    
        3519.       3519.       3519.       3521.       3521.       3521.       3522.       3522.       3522.       3523.    
        3523.       3523.       3523.       3523.       3523.       3523.       3523.       3523.       3523.       3526.    
        3526.       3526.       3529.       3529.       3529.       3531.       3531.       3531.       3531.       3531.    
        3531.       3532.       3532.       3532.       3533.       3533.       3533.       3534.       3534.       3534.    
        3536.       3536.       3536.       3540.       3540.       3540.       3540.       3540.       3542.       3545.    
        3544.       3544.       3544.       3547.       3545.       3550.       3550.       3552.       3552.       3550.    
        3548.       3549.       3549.       3550.       3552.       3554.    
  43    3518.       3512.       3504.       3497.       3497.       3497.       3496.       3496.       3490.       3490.    
        3493.       3495.       3489.       3493.       3495.       3495.       3493.       3493.       3493.       3495.    
        3495.       3495.       3495.       3490.       3490.       3490.       3490.       3490.       3490.       3493.    
        3493.       3493.       3494.       3494.       3494.       3499.       3499.       3499.       3501.       3501.    
        3501.       3502.       3502.       3502.       3501.       3501.       3501.       3501.       3501.       3501.    
        3501.       3501.       3501.       3504.       3504.       3504.       3505.       3505.       3505.       3506.    
        3506.       3506.       3506.       3506.       3506.       3507.       3507.       3507.       3506.       3506.    
        3506.       3506.       3506.       3506.       3506.       3508.       3508.       3508.       3509.       3509.    
        3509.       3509.       3509.       3509.       3509.       3509.       3509.       3510.       3510.       3510.    
        3514.       3514.       3514.       3515.       3515.       3515.       3515.       3515.       3515.       3515.    
        3515.       3515.       3517.       3517.       3517.       3516.       3516.       3516.       3516.       3516.    
        3516.       3516.       3516.       3516.       3516.       3516.       3516.       3517.       3517.       3517.    
        3519.       3519.       3519.       3521.       3521.       3521.       3522.       3522.       3522.       3523.    
        3523.       3523.       3523.       3523.       3523.       3523.       3523.       3523.       3523.       3526.    
        3526.       3526.       3529.       3529.       3529.       3531.       3531.       3531.       3531.       3531.    
        3531.       3532.       3532.       3532.       3533.       3533.       3533.       3534.       3534.       3534.    
        3536.       3536.       3536.       3540.       3540.       3540.       3540.       3540.       3542.       3545.    
        3544.       3544.       3544.       3547.       3545.       3550.       3550.       3552.       3552.       3550.    
        3548.       3549.       3549.       3550.       3552.       3554.    
  44    3522.       3515.       3507.       3496.       3496.       3496.       3500.       3503.       3498.       3498.    
        3493.       3490.       3498.       3495.       3496.       3496.       3493.       3493.       3493.       3494.    
        3494.       3494.       3494.       3494.       3494.       3494.       3493.       3493.       3493.       3494.    
        3494.       3494.       3498.       3498.       3498.       3499.       3499.       3499.       3499.       3499.    
        3499.       3501.       3501.       3501.       3502.       3502.       3502.       3502.       3502.       3502.    
        3502.       3502.       3502.       3505.       3505.       3505.       3507.       3507.       3507.       3509.    
        3509.       3509.       3509.       3509.       3509.       3510.       3510.       3510.       3509.       3509.    
        3509.       3509.       3509.       3509.       3509.       3510.       3510.       3510.       3511.       3511.    
        3511.       3509.       3509.       3509.       3509.       3509.       3509.       3511.       3511.       3511.    
        3513.       3513.       3513.       3513.       3513.       3513.       3516.       3516.       3516.       3517.    
        3517.       3517.       3517.       3517.       3517.       3516.       3516.       3516.       3515.       3515.    
        3515.       3515.       3515.       3515.       3515.       3515.       3515.       3513.       3513.       3513.    
        3513.       3513.       3513.       3515.       3515.       3515.       3517.       3517.       3517.       3519.    
        3519.       3519.       3519.       3520.       3520.       3520.       3519.       3519.       3519.       3521.    
        3521.       3521.       3524.       3524.       3524.       3529.       3529.       3529.       3531.       3531.    
        3531.       3533.       3533.       3533.       3534.       3534.       3534.       3536.       3536.       3536.    
        3539.       3539.       3539.       3540.       3540.       3539.       3539.       3539.       3541.       3546.    
        3548.       3548.       3550.       3552.       3553.       3551.       3551.       3550.       3550.       3551.    
        3550.       3550.       3550.       3550.       3552.       3555.    
  45    3522.       3515.       3507.       3496.       3496.       3496.       3500.       3503.       3498.       3498.    
        3493.       3490.       3498.       3495.       3496.       3496.       3493.       3493.       3493.       3494.    
        3494.       3494.       3494.       3494.       3494.       3494.       3493.       3493.       3493.       3494.    
        3494.       3494.       3498.       3498.       3498.       3499.       3499.       3499.       3499.       3499.    
        3499.       3501.       3501.       3501.       3502.       3502.       3502.       3502.       3502.       3502.    
        3502.       3502.       3502.       3505.       3505.       3505.       3507.       3507.       3507.       3509.    
        3509.       3509.       3509.       3509.       3509.       3510.       3510.       3510.       3509.       3509.    
        3509.       3509.       3509.       3509.       3509.       3510.       3510.       3510.       3511.       3511.    
        3511.       3509.       3509.       3509.       3509.       3509.       3509.       3511.       3511.       3511.    
        3513.       3513.       3513.       3513.       3513.       3513.       3516.       3516.       3516.       3517.    
        3517.       3517.       3517.       3517.       3517.       3516.       3516.       3516.       3515.       3515.    
        3515.       3515.       3515.       3515.       3515.       3515.       3515.       3513.       3513.       3513.    
        3513.       3513.       3513.       3515.       3515.       3515.       3517.       3517.       3517.       3519.    
        3519.       3519.       3519.       3520.       3520.       3520.       3519.       3519.       3519.       3521.    
        3521.       3521.       3524.       3524.       3524.       3529.       3529.       3529.       3531.       3531.    
        3531.       3533.       3533.       3533.       3534.       3534.       3534.       3536.       3536.       3536.    
        3539.       3539.       3539.       3540.       3540.       3539.       3539.       3539.       3541.       3546.    
        3548.       3548.       3550.       3552.       3553.       3551.       3551.       3550.       3550.       3551.    
        3550.       3550.       3550.       3550.       3552.       3555.    
  46    3522.       3515.       3507.       3496.       3496.       3496.       3500.       3503.       3498.       3498.    
        3493.       3490.       3498.       3495.       3496.       3496.       3493.       3493.       3493.       3494.    
        3494.       3494.       3494.       3494.       3494.       3494.       3493.       3493.       3493.       3494.    
        3494.       3494.       3498.       3498.       3498.       3499.       3499.       3499.       3499.       3499.    
        3499.       3501.       3501.       3501.       3502.       3502.       3502.       3502.       3502.       3502.    
        3502.       3502.       3502.       3505.       3505.       3505.       3507.       3507.       3507.       3509.    
        3509.       3509.       3509.       3509.       3509.       3510.       3510.       3510.       3509.       3509.    
        3509.       3509.       3509.       3509.       3509.       3510.       3510.       3510.       3511.       3511.    
        3511.       3509.       3509.       3509.       3509.       3509.       3509.       3511.       3511.       3511.    
        3513.       3513.       3513.       3513.       3513.       3513.       3516.       3516.       3516.       3517.    
        3517.       3517.       3517.       3517.       3517.       3516.       3516.       3516.       3515.       3515.    
        3515.       3515.       3515.       3515.       3515.       3515.       3515.       3513.       3513.       3513.    
        3513.       3513.       3513.       3515.       3515.       3515.       3517.       3517.       3517.       3519.    
        3519.       3519.       3519.       3520.       3520.       3520.       3519.       3519.       3519.       3521.    
        3521.       3521.       3524.       3524.       3524.       3529.       3529.       3529.       3531.       3531.    
        3531.       3533.       3533.       3533.       3534.       3534.       3534.       3536.       3536.       3536.    
        3539.       3539.       3539.       3540.       3540.       3539.       3539.       3539.       3541.       3546.    
        3548.       3548.       3550.       3552.       3553.       3551.       3551.       3550.       3550.       3551.    
        3550.       3550.       3550.       3550.       3552.       3555.    
  47    3524.       3518.       3511.       3503.       3503.       3500.       3503.       3507.       3502.       3502.    
        3496.       3495.       3495.       3495.       3497.       3497.       3496.       3496.       3496.       3495.    
        3495.       3495.       3495.       3497.       3497.       3497.       3497.       3497.       3497.       3497.    
        3497.       3497.       3499.       3499.       3499.       3500.       3500.       3500.       3500.       3500.    
        3500.       3499.       3499.       3499.       3499.       3499.       3499.       3501.       3501.       3501.    
        3502.       3502.       3502.       3503.       3503.       3503.       3504.       3504.       3504.       3505.    
        3505.       3505.       3506.       3506.       3506.       3507.       3507.       3507.       3507.       3507.    
        3507.       3508.       3508.       3508.       3508.       3508.       3508.       3508.       3509.       3509.    
        3509.       3511.       3511.       3511.       3513.       3513.       3513.       3514.       3514.       3514.    
        3514.       3514.       3514.       3513.       3513.       3513.       3515.       3515.       3515.       3517.    
        3517.       3517.       3519.       3519.       3519.       3519.       3519.       3519.       3517.       3517.    
        3517.       3517.       3517.       3517.       3516.       3516.       3516.       3516.       3516.       3516.    
        3517.       3517.       3517.       3519.       3519.       3519.       3521.       3521.       3521.       3523.    
        3523.       3523.       3523.       3523.       3523.       3523.       3523.       3523.       3523.       3524.    
        3524.       3524.       3526.       3526.       3526.       3531.       3531.       3531.       3533.       3533.    
        3533.       3533.       3533.       3533.       3535.       3535.       3535.       3538.       3538.       3538.    
        3538.       3538.       3538.       3538.       3538.       3539.       3539.       3541.       3543.       3544.    
        3547.       3547.       3550.       3552.       3554.       3551.       3551.       3549.       3548.       3549.    
        3549.       3550.       3550.       3550.       3550.       3551.    
  48    3524.       3518.       3511.       3503.       3503.       3500.       3503.       3507.       3502.       3502.    
        3496.       3495.       3495.       3495.       3497.       3497.       3496.       3496.       3496.       3495.    
        3495.       3495.       3495.       3497.       3497.       3497.       3497.       3497.       3497.       3497.    
        3497.       3497.       3499.       3499.       3499.       3500.       3500.       3500.       3500.       3500.    
        3500.       3499.       3499.       3499.       3499.       3499.       3499.       3501.       3501.       3501.    
        3502.       3502.       3502.       3503.       3503.       3503.       3504.       3504.       3504.       3505.    
        3505.       3505.       3506.       3506.       3506.       3507.       3507.       3507.       3507.       3507.    
        3507.       3508.       3508.       3508.       3508.       3508.       3508.       3508.       3509.       3509.    
        3509.       3511.       3511.       3511.       3513.       3513.       3513.       3514.       3514.       3514.    
        3514.       3514.       3514.       3513.       3513.       3513.       3515.       3515.       3515.       3517.    
        3517.       3517.       3519.       3519.       3519.       3519.       3519.       3519.       3517.       3517.    
        3517.       3517.       3517.       3517.       3516.       3516.       3516.       3516.       3516.       3516.    
        3517.       3517.       3517.       3519.       3519.       3519.       3521.       3521.       3521.       3523.    
        3523.       3523.       3523.       3523.       3523.       3523.       3523.       3523.       3523.       3524.    
        3524.       3524.       3526.       3526.       3526.       3531.       3531.       3531.       3533.       3533.    
        3533.       3533.       3533.       3533.       3535.       3535.       3535.       3538.       3538.       3538.    
        3538.       3538.       3538.       3538.       3538.       3539.       3539.       3541.       3543.       3544.    
        3547.       3547.       3550.       3552.       3554.       3551.       3551.       3549.       3548.       3549.    
        3549.       3550.       3550.       3550.       3550.       3551.    
  49    3524.       3518.       3511.       3503.       3503.       3500.       3503.       3507.       3502.       3502.    
        3496.       3495.       3495.       3495.       3497.       3497.       3496.       3496.       3496.       3495.    
        3495.       3495.       3495.       3497.       3497.       3497.       3497.       3497.       3497.       3497.    
        3497.       3497.       3499.       3499.       3499.       3500.       3500.       3500.       3500.       3500.    
        3500.       3499.       3499.       3499.       3499.       3499.       3499.       3501.       3501.       3501.    
        3502.       3502.       3502.       3503.       3503.       3503.       3504.       3504.       3504.       3505.    
        3505.       3505.       3506.       3506.       3506.       3507.       3507.       3507.       3507.       3507.    
        3507.       3508.       3508.       3508.       3508.       3508.       3508.       3508.       3509.       3509.    
        3509.       3511.       3511.       3511.       3513.       3513.       3513.       3514.       3514.       3514.    
        3514.       3514.       3514.       3513.       3513.       3513.       3515.       3515.       3515.       3517.    
        3517.       3517.       3519.       3519.       3519.       3519.       3519.       3519.       3517.       3517.    
        3517.       3517.       3517.       3517.       3516.       3516.       3516.       3516.       3516.       3516.    
        3517.       3517.       3517.       3519.       3519.       3519.       3521.       3521.       3521.       3523.    
        3523.       3523.       3523.       3523.       3523.       3523.       3523.       3523.       3523.       3524.    
        3524.       3524.       3526.       3526.       3526.       3531.       3531.       3531.       3533.       3533.    
        3533.       3533.       3533.       3533.       3535.       3535.       3535.       3538.       3538.       3538.    
        3538.       3538.       3538.       3538.       3538.       3539.       3539.       3541.       3543.       3544.    
        3547.       3547.       3550.       3552.       3554.       3551.       3551.       3549.       3548.       3549.    
        3549.       3550.       3550.       3550.       3550.       3551.    
  50    3525.       3520.       3515.       3507.       3507.       3502.       3501.       3503.       3495.       3495.    
        3492.       3496.       3492.       3492.       3494.       3494.       3494.       3494.       3494.       3494.    
        3494.       3494.       3494.       3496.       3496.       3496.       3495.       3495.       3495.       3495.    
        3495.       3495.       3499.       3499.       3499.       3503.       3503.       3503.       3502.       3502.    
        3502.       3502.       3502.       3502.       3502.       3502.       3502.       3504.       3504.       3504.    
        3505.       3505.       3505.       3506.       3506.       3506.       3506.       3506.       3506.       3507.    
        3507.       3507.       3508.       3508.       3508.       3509.       3509.       3509.       3510.       3510.    
        3510.       3511.       3511.       3511.       3511.       3512.       3512.       3512.       3513.       3513.    
        3513.       3515.       3515.       3515.       3515.       3515.       3515.       3515.       3515.       3515.    
        3515.       3515.       3515.       3515.       3515.       3515.       3515.       3515.       3515.       3515.    
        3515.       3515.       3516.       3516.       3516.       3516.       3516.       3516.       3519.       3519.    
        3519.       3521.       3521.       3521.       3520.       3520.       3520.       3520.       3520.       3520.    
        3522.       3522.       3522.       3522.       3522.       3522.       3521.       3521.       3521.       3522.    
        3522.       3522.       3522.       3522.       3522.       3522.       3523.       3523.       3523.       3524.    
        3524.       3524.       3527.       3527.       3527.       3533.       3533.       3533.       3534.       3534.    
        3534.       3534.       3534.       3534.       3535.       3535.       3535.       3536.       3536.       3536.    
        3538.       3538.       3538.       3538.       3538.       3539.       3539.       3540.       3541.       3541.    
        3543.       3543.       3545.       3548.       3549.       3549.       3549.       3547.       3546.       3547.    
        3547.       3549.       3549.       3548.       3550.       3551.    
  51    3525.       3520.       3515.       3507.       3507.       3502.       3501.       3503.       3495.       3495.    
        3492.       3496.       3492.       3492.       3494.       3494.       3494.       3494.       3494.       3494.    
        3494.       3494.       3494.       3496.       3496.       3496.       3495.       3495.       3495.       3495.    
        3495.       3495.       3499.       3499.       3499.       3503.       3503.       3503.       3502.       3502.    
        3502.       3502.       3502.       3502.       3502.       3502.       3502.       3504.       3504.       3504.    
        3505.       3505.       3505.       3506.       3506.       3506.       3506.       3506.       3506.       3507.    
        3507.       3507.       3508.       3508.       3508.       3509.       3509.       3509.       3510.       3510.    
        3510.       3511.       3511.       3511.       3511.       3512.       3512.       3512.       3513.       3513.    
        3513.       3515.       3515.       3515.       3515.       3515.       3515.       3515.       3515.       3515.    
        3515.       3515.       3515.       3515.       3515.       3515.       3515.       3515.       3515.       3515.    
        3515.       3515.       3516.       3516.       3516.       3516.       3516.       3516.       3519.       3519.    
        3519.       3521.       3521.       3521.       3520.       3520.       3520.       3520.       3520.       3520.    
        3522.       3522.       3522.       3522.       3522.       3522.       3521.       3521.       3521.       3522.    
        3522.       3522.       3522.       3522.       3522.       3522.       3523.       3523.       3523.       3524.    
        3524.       3524.       3527.       3527.       3527.       3533.       3533.       3533.       3534.       3534.    
        3534.       3534.       3534.       3534.       3535.       3535.       3535.       3536.       3536.       3536.    
        3538.       3538.       3538.       3538.       3538.       3539.       3539.       3540.       3541.       3541.    
        3543.       3543.       3545.       3548.       3549.       3549.       3549.       3547.       3546.       3547.    
        3547.       3549.       3549.       3548.       3550.       3551.    
  52    3525.       3520.       3515.       3507.       3507.       3502.       3501.       3503.       3495.       3495.    
        3492.       3496.       3492.       3492.       3494.       3494.       3494.       3494.       3494.       3494.    
        3494.       3494.       3494.       3496.       3496.       3496.       3495.       3495.       3495.       3495.    
        3495.       3495.       3499.       3499.       3499.       3503.       3503.       3503.       3502.       3502.    
        3502.       3502.       3502.       3502.       3502.       3502.       3502.       3504.       3504.       3504.    
        3505.       3505.       3505.       3506.       3506.       3506.       3506.       3506.       3506.       3507.    
        3507.       3507.       3508.       3508.       3508.       3509.       3509.       3509.       3510.       3510.    
        3510.       3511.       3511.       3511.       3511.       3512.       3512.       3512.       3513.       3513.    
        3513.       3515.       3515.       3515.       3515.       3515.       3515.       3515.       3515.       3515.    
        3515.       3515.       3515.       3515.       3515.       3515.       3515.       3515.       3515.       3515.    
        3515.       3515.       3516.       3516.       3516.       3516.       3516.       3516.       3519.       3519.    
        3519.       3521.       3521.       3521.       3520.       3520.       3520.       3520.       3520.       3520.    
        3522.       3522.       3522.       3522.       3522.       3522.       3521.       3521.       3521.       3522.    
        3522.       3522.       3522.       3522.       3522.       3522.       3523.       3523.       3523.       3524.    
        3524.       3524.       3527.       3527.       3527.       3533.       3533.       3533.       3534.       3534.    
        3534.       3534.       3534.       3534.       3535.       3535.       3535.       3536.       3536.       3536.    
        3538.       3538.       3538.       3538.       3538.       3539.       3539.       3540.       3541.       3541.    
        3543.       3543.       3545.       3548.       3549.       3549.       3549.       3547.       3546.       3547.    
        3547.       3549.       3549.       3548.       3550.       3551.    
  53    3527.       3520.       3517.       3511.       3511.       3507.       3504.       3499.       3494.       3494.    
        3491.       3493.       3490.       3493.       3494.       3494.       3495.       3495.       3495.       3493.    
        3493.       3493.       3493.       3496.       3496.       3496.       3498.       3498.       3498.       3498.    
        3498.       3498.       3500.       3500.       3500.       3501.       3501.       3501.       3500.       3500.    
        3500.       3499.       3499.       3499.       3501.       3501.       3501.       3504.       3504.       3504.    
        3505.       3505.       3505.       3506.       3506.       3506.       3507.       3507.       3507.       3508.    
        3508.       3508.       3509.       3509.       3509.       3509.       3509.       3509.       3511.       3511.    
        3511.       3512.       3512.       3512.       3512.       3513.       3513.       3513.       3514.       3514.    
        3514.       3515.       3515.       3515.       3515.       3515.       3515.       3515.       3515.       3515.    
        3513.       3513.       3513.       3514.       3514.       3514.       3514.       3514.       3514.       3516.    
        3516.       3516.       3520.       3520.       3520.       3520.       3520.       3520.       3520.       3520.    
        3520.       3520.       3520.       3520.       3519.       3519.       3519.       3519.       3519.       3519.    
        3520.       3520.       3520.       3522.       3522.       3522.       3520.       3520.       3520.       3521.    
        3521.       3521.       3521.       3523.       3523.       3523.       3528.       3528.       3528.       3530.    
        3530.       3530.       3531.       3531.       3531.       3533.       3533.       3533.       3536.       3536.    
        3536.       3535.       3535.       3535.       3534.       3534.       3534.       3536.       3536.       3536.    
        3537.       3537.       3537.       3537.       3537.       3537.       3537.       3537.       3538.       3539.    
        3542.       3542.       3544.       3547.       3550.       3548.       3548.       3546.       3546.       3547.    
        3549.       3551.       3551.       3552.       3553.       3554.    
  54    3527.       3520.       3517.       3511.       3511.       3507.       3504.       3499.       3494.       3494.    
        3491.       3493.       3490.       3493.       3494.       3494.       3495.       3495.       3495.       3493.    
        3493.       3493.       3493.       3496.       3496.       3496.       3498.       3498.       3498.       3498.    
        3498.       3498.       3500.       3500.       3500.       3501.       3501.       3501.       3500.       3500.    
        3500.       3499.       3499.       3499.       3501.       3501.       3501.       3504.       3504.       3504.    
        3505.       3505.       3505.       3506.       3506.       3506.       3507.       3507.       3507.       3508.    
        3508.       3508.       3509.       3509.       3509.       3509.       3509.       3509.       3511.       3511.    
        3511.       3512.       3512.       3512.       3512.       3513.       3513.       3513.       3514.       3514.    
        3514.       3515.       3515.       3515.       3515.       3515.       3515.       3515.       3515.       3515.    
        3513.       3513.       3513.       3514.       3514.       3514.       3514.       3514.       3514.       3516.    
        3516.       3516.       3520.       3520.       3520.       3520.       3520.       3520.       3520.       3520.    
        3520.       3520.       3520.       3520.       3519.       3519.       3519.       3519.       3519.       3519.    
        3520.       3520.       3520.       3522.       3522.       3522.       3520.       3520.       3520.       3521.    
        3521.       3521.       3521.       3523.       3523.       3523.       3528.       3528.       3528.       3530.    
        3530.       3530.       3531.       3531.       3531.       3533.       3533.       3533.       3536.       3536.    
        3536.       3535.       3535.       3535.       3534.       3534.       3534.       3536.       3536.       3536.    
        3537.       3537.       3537.       3537.       3537.       3537.       3537.       3537.       3538.       3539.    
        3542.       3542.       3544.       3547.       3550.       3548.       3548.       3546.       3546.       3547.    
        3549.       3551.       3551.       3552.       3553.       3554.    
  55    3527.       3520.       3517.       3511.       3511.       3507.       3504.       3499.       3494.       3494.    
        3491.       3493.       3490.       3493.       3494.       3494.       3495.       3495.       3495.       3493.    
        3493.       3493.       3493.       3496.       3496.       3496.       3498.       3498.       3498.       3498.    
        3498.       3498.       3500.       3500.       3500.       3501.       3501.       3501.       3500.       3500.    
        3500.       3499.       3499.       3499.       3501.       3501.       3501.       3504.       3504.       3504.    
        3505.       3505.       3505.       3506.       3506.       3506.       3507.       3507.       3507.       3508.    
        3508.       3508.       3509.       3509.       3509.       3509.       3509.       3509.       3511.       3511.    
        3511.       3512.       3512.       3512.       3512.       3513.       3513.       3513.       3514.       3514.    
        3514.       3515.       3515.       3515.       3515.       3515.       3515.       3515.       3515.       3515.    
        3513.       3513.       3513.       3514.       3514.       3514.       3514.       3514.       3514.       3516.    
        3516.       3516.       3520.       3520.       3520.       3520.       3520.       3520.       3520.       3520.    
        3520.       3520.       3520.       3520.       3519.       3519.       3519.       3519.       3519.       3519.    
        3520.       3520.       3520.       3522.       3522.       3522.       3520.       3520.       3520.       3520.    
        3521.       3521.       3521.       3523.       3523.       3523.       3528.       3528.       3528.       3530.    
        3530.       3530.       3531.       3531.       3531.       3533.       3533.       3533.       3536.       3536.    
        3536.       3535.       3535.       3535.       3534.       3534.       3534.       3536.       3536.       3536.    
        3537.       3537.       3537.       3537.       3537.       3537.       3537.       3537.       3538.       3539.    
        3542.       3542.       3544.       3547.       3550.       3548.       3548.       3546.       3546.       3547.    
        3549.       3551.       3551.       3552.       3553.       3554.    
  56    3527.       3522.       3518.       3514.       3514.       3511.       3510.       3507.       3501.       3501.    
        3496.       3493.       3490.       3493.       3497.       3497.       3495.       3495.       3495.       3495.    
        3495.       3495.       3495.       3495.       3495.       3495.       3495.       3495.       3495.       3498.    
        3498.       3498.       3501.       3501.       3501.       3501.       3501.       3501.       3500.       3500.    
        3500.       3500.       3500.       3500.       3501.       3501.       3501.       3503.       3503.       3503.    
        3504.       3504.       3504.       3504.       3504.       3504.       3506.       3506.       3506.       3509.    
        3509.       3509.       3509.       3509.       3509.       3509.       3509.       3509.       3509.       3509.    
        3509.       3509.       3509.       3509.       3509.       3510.       3510.       3510.       3512.       3512.    
        3512.       3513.       3513.       3513.       3516.       3516.       3516.       3516.       3516.       3516.    
        3518.       3518.       3518.       3517.       3517.       3517.       3515.       3515.       3515.       3515.    
        3515.       3515.       3519.       3519.       3519.       3521.       3521.       3521.       3521.       3521.    
        3521.       3519.       3519.       3519.       3518.       3518.       3518.       3519.       3519.       3519.    
        3521.       3521.       3521.       3524.       3524.       3524.       3525.       3525.       3525.       3527.    
        3527.       3527.       3527.       3529.       3529.       3529.       3531.       3531.       3531.       3531.    
        3531.       3531.       3532.       3532.       3532.       3532.       3532.       3532.       3534.       3534.    
        3534.       3536.       3536.       3536.       3538.       3538.       3538.       3538.       3538.       3538.    
        3537.       3537.       3537.       3536.       3536.       3537.       3537.       3535.       3537.       3543.    
        3547.       3547.       3549.       3550.       3553.       3553.       3553.       3550.       3550.       3550.    
        3550.       3551.       3551.       3553.       3555.       3559.    
  57    3527.       3522.       3518.       3514.       3514.       3511.       3510.       3507.       3501.       3501.    
        3496.       3493.       3490.       3493.       3497.       3497.       3495.       3495.       3495.       3495.    
        3495.       3495.       3495.       3495.       3495.       3495.       3495.       3495.       3495.       3498.    
        3498.       3498.       3501.       3501.       3501.       3501.       3501.       3501.       3500.       3500.    
        3500.       3500.       3500.       3500.       3501.       3501.       3501.       3503.       3503.       3503.    
        3504.       3504.       3504.       3504.       3504.       3504.       3506.       3506.       3506.       3509.    
        3509.       3509.       3509.       3509.       3509.       3509.       3509.       3509.       3509.       3509.    
        3509.       3509.       3509.       3509.       3509.       3510.       3510.       3510.       3512.       3512.    
        3512.       3513.       3513.       3513.       3516.       3516.       3516.       3516.       3516.       3516.    
        3518.       3518.       3518.       3517.       3517.       3517.       3515.       3515.       3515.       3515.    
        3515.       3515.       3519.       3519.       3519.       3521.       3521.       3521.       3521.       3521.    
        3521.       3519.       3519.       3519.       3518.       3518.       3518.       3519.       3519.       3519.    
        3521.       3521.       3521.       3524.       3524.       3524.       3525.       3525.       3525.       3527.    
        3527.       3527.       3527.       3529.       3529.       3529.       3531.       3531.       3531.       3531.    
        3531.       3531.       3532.       3532.       3532.       3532.       3532.       3532.       3534.       3534.    
        3534.       3536.       3536.       3536.       3538.       3538.       3538.       3538.       3538.       3538.    
        3537.       3537.       3537.       3536.       3536.       3537.       3537.       3535.       3537.       3543.    
        3547.       3547.       3549.       3550.       3553.       3553.       3553.       3550.       3550.       3550.    
        3550.       3551.       3551.       3553.       3555.       3559.    
  58    3527.       3522.       3518.       3514.       3514.       3511.       3510.       3507.       3501.       3501.    
        3496.       3493.       3490.       3493.       3497.       3497.       3495.       3495.       3495.       3495.    
        3495.       3495.       3495.       3495.       3495.       3495.       3495.       3495.       3495.       3498.    
        3498.       3498.       3501.       3501.       3501.       3501.       3501.       3501.       3500.       3500.    
        3500.       3500.       3500.       3500.       3501.       3501.       3501.       3503.       3503.       3503.    
        3504.       3504.       3504.       3504.       3504.       3504.       3506.       3506.       3506.       3509.    
        3509.       3509.       3509.       3509.       3509.       3509.       3509.       3509.       3509.       3509.    
        3509.       3509.       3509.       3509.       3509.       3510.       3510.       3510.       3512.       3512.    
        3512.       3513.       3513.       3513.       3516.       3516.       3516.       3516.       3516.       3516.    
        3518.       3518.       3518.       3517.       3517.       3517.       3515.       3515.       3515.       3515.    
        3515.       3515.       3519.       3519.       3519.       3521.       3521.       3521.       3521.       3521.    
        3521.       3519.       3519.       3519.       3518.       3518.       3518.       3519.       3519.       3519.    
        3521.       3521.       3521.       3524.       3524.       3524.       3525.       3525.       3525.       3527.    
        3527.       3527.       3527.       3529.       3529.       3529.       3531.       3531.       3531.       3531.    
        3531.       3531.       3532.       3532.       3532.       3532.       3532.       3532.       3534.       3534.    
        3534.       3536.       3536.       3536.       3538.       3538.       3538.       3538.       3538.       3538.    
        3537.       3537.       3537.       3536.       3536.       3537.       3537.       3535.       3537.       3543.    
        3547.       3547.       3549.       3550.       3553.       3553.       3553.       3550.       3550.       3550.    
        3550.       3551.       3551.       3553.       3555.       3559.    
  59    3529.       3522.       3518.       3520.       3520.       3519.       3517.       3511.       3506.       3506.    
        3503.       3500.       3494.       3494.       3500.       3500.       3498.       3498.       3498.       3498.    
        3498.       3498.       3498.       3498.       3498.       3498.       3496.       3496.       3496.       3497.    
        3497.       3497.       3499.       3499.       3499.       3498.       3498.       3498.       3498.       3498.    
        3498.       3498.       3498.       3498.       3499.       3499.       3499.       3501.       3501.       3501.    
        3502.       3502.       3502.       3501.       3501.       3501.       3503.       3503.       3503.       3506.    
        3506.       3506.       3507.       3507.       3507.       3508.       3508.       3508.       3510.       3510.    
        3510.       3511.       3511.       3511.       3511.       3510.       3510.       3510.       3510.       3510.    
        3510.       3511.       3511.       3511.       3515.       3515.       3515.       3517.       3517.       3517.    
        3519.       3519.       3519.       3521.       3521.       3521.       3520.       3520.       3520.       3519.    
        3519.       3519.       3520.       3520.       3520.       3521.       3521.       3521.       3521.       3521.    
        3521.       3519.       3519.       3519.       3520.       3520.       3520.       3521.       3521.       3521.    
        3524.       3524.       3524.       3526.       3526.       3526.       3529.       3529.       3529.       3532.    
        3532.       3532.       3532.       3535.       3535.       3535.       3536.       3536.       3536.       3536.    
        3536.       3536.       3536.       3536.       3536.       3536.       3536.       3536.       3536.       3536.    
        3536.       3537.       3537.       3537.       3538.       3538.       3538.       3537.       3537.       3537.    
        3538.       3538.       3538.       3536.       3536.       3538.       3538.       3540.       3542.       3548.    
        3550.       3550.       3550.       3551.       3553.       3554.       3554.       3551.       3550.       3551.    
        3553.       3555.       3555.       3558.       3563.       3569.    
  60    3529.       3522.       3518.       3520.       3520.       3519.       3517.       3511.       3506.       3506.    
        3503.       3500.       3494.       3494.       3500.       3500.       3498.       3498.       3498.       3498.    
        3498.       3498.       3498.       3498.       3498.       3498.       3496.       3496.       3496.       3497.    
        3497.       3497.       3499.       3499.       3499.       3498.       3498.       3498.       3498.       3498.    
        3498.       3498.       3498.       3498.       3499.       3499.       3499.       3501.       3501.       3501.    
        3502.       3502.       3502.       3501.       3501.       3501.       3503.       3503.       3503.       3506.    
        3506.       3506.       3507.       3507.       3507.       3508.       3508.       3508.       3510.       3510.    
        3510.       3511.       3511.       3511.       3511.       3510.       3510.       3510.       3510.       3510.    
        3510.       3511.       3511.       3511.       3515.       3515.       3515.       3517.       3517.       3517.    
        3519.       3519.       3519.       3521.       3521.       3521.       3520.       3520.       3520.       3519.    
        3519.       3519.       3520.       3520.       3520.       3521.       3521.       3521.       3521.       3521.    
        3521.       3519.       3519.       3519.       3520.       3520.       3520.       3521.       3521.       3521.    
        3524.       3524.       3524.       3526.       3526.       3526.       3529.       3529.       3529.       3532.    
        3532.       3532.       3532.       3535.       3535.       3535.       3536.       3536.       3536.       3536.    
        3536.       3536.       3536.       3536.       3536.       3536.       3536.       3536.       3536.       3536.    
        3536.       3537.       3537.       3537.       3538.       3538.       3538.       3537.       3537.       3537.    
        3538.       3538.       3538.       3536.       3536.       3538.       3538.       3540.       3542.       3548.    
        3550.       3550.       3550.       3551.       3553.       3554.       3554.       3551.       3550.       3551.    
        3553.       3555.       3555.       3558.       3563.       3569.    
  61    3529.       3522.       3518.       3520.       3520.       3519.       3517.       3511.       3506.       3506.    
        3503.       3500.       3494.       3494.       3500.       3500.       3498.       3498.       3498.       3498.    
        3498.       3498.       3498.       3498.       3498.       3498.       3496.       3496.       3496.       3497.    
        3497.       3497.       3499.       3499.       3499.       3498.       3498.       3498.       3498.       3498.    
        3498.       3498.       3498.       3498.       3499.       3499.       3499.       3501.       3501.       3501.    
        3502.       3502.       3502.       3501.       3501.       3501.       3503.       3503.       3503.       3506.    
        3506.       3506.       3507.       3507.       3507.       3508.       3508.       3508.       3510.       3510.    
        3510.       3511.       3511.       3511.       3511.       3510.       3510.       3510.       3510.       3510.    
        3510.       3511.       3511.       3511.       3515.       3515.       3515.       3517.       3517.       3517.    
        3519.       3519.       3519.       3521.       3521.       3521.       3520.       3520.       3520.       3519.    
        3519.       3519.       3520.       3520.       3520.       3521.       3521.       3521.       3521.       3521.    
        3521.       3519.       3519.       3519.       3520.       3520.       3520.       3521.       3521.       3521.    
        3524.       3524.       3524.       3526.       3526.       3526.       3529.       3529.       3529.       3532.    
        3532.       3532.       3532.       3535.       3535.       3535.       3536.       3536.       3536.       3536.    
        3536.       3536.       3536.       3536.       3536.       3536.       3536.       3536.       3536.       3536.    
        3536.       3537.       3537.       3537.       3538.       3538.       3538.       3537.       3537.       3537.    
        3538.       3538.       3538.       3536.       3536.       3538.       3538.       3540.       3542.       3548.    
        3550.       3550.       3550.       3551.       3553.       3554.       3554.       3551.       3550.       3551.    
        3553.       3555.       3555.       3558.       3563.       3569.    
  62    3533.       3528.       3523.       3522.       3522.       3523.       3520.       3515.       3509.       3509.    
        3505.       3499.       3496.       3494.       3500.       3500.       3501.       3501.       3501.       3499.    
        3499.       3499.       3499.       3500.       3500.       3500.       3499.       3499.       3499.       3499.    
        3499.       3499.       3500.       3500.       3500.       3500.       3500.       3500.       3500.       3500.    
        3500.       3503.       3503.       3503.       3505.       3505.       3505.       3505.       3505.       3505.    
        3504.       3504.       3504.       3505.       3505.       3505.       3504.       3504.       3504.       3505.    
        3505.       3505.       3505.       3505.       3505.       3507.       3507.       3507.       3508.       3508.    
        3508.       3512.       3512.       3512.       3512.       3514.       3514.       3514.       3514.       3514.    
        3514.       3513.       3513.       3513.       3514.       3514.       3514.       3516.       3516.       3516.    
        3519.       3519.       3519.       3519.       3519.       3519.       3520.       3520.       3520.       3522.    
        3522.       3522.       3522.       3522.       3522.       3522.       3522.       3522.       3521.       3521.    
        3521.       3520.       3520.       3520.       3520.       3520.       3520.       3522.       3522.       3522.    
        3523.       3523.       3523.       3525.       3525.       3525.       3528.       3528.       3528.       3534.    
        3534.       3534.       3534.       3538.       3538.       3538.       3539.       3539.       3539.       3540.    
        3540.       3540.       3538.       3538.       3538.       3537.       3537.       3537.       3537.       3537.    
        3537.       3536.       3536.       3536.       3536.       3536.       3536.       3537.       3537.       3537.    
        3538.       3538.       3538.       3538.       3538.       3542.       3542.       3543.       3546.       3550.    
        3551.       3551.       3551.       3552.       3555.       3558.       3558.       3556.       3556.       3558.    
        3560.       3561.       3561.       3563.       3568.       3571.    
  63    3533.       3528.       3523.       3522.       3522.       3523.       3520.       3515.       3509.       3509.    
        3505.       3499.       3496.       3494.       3500.       3500.       3501.       3501.       3501.       3499.    
        3499.       3499.       3499.       3500.       3500.       3500.       3499.       3499.       3499.       3499.    
        3499.       3499.       3500.       3500.       3500.       3500.       3500.       3500.       3500.       3500.    
        3500.       3503.       3503.       3503.       3505.       3505.       3505.       3505.       3505.       3505.    
        3504.       3504.       3504.       3505.       3505.       3505.       3504.       3504.       3504.       3505.    
        3505.       3505.       3505.       3505.       3505.       3507.       3507.       3507.       3508.       3508.    
        3508.       3512.       3512.       3512.       3512.       3514.       3514.       3514.       3514.       3514.    
        3514.       3513.       3513.       3513.       3514.       3514.       3514.       3516.       3516.       3516.    
        3519.       3519.       3519.       3519.       3519.       3519.       3520.       3520.       3520.       3522.    
        3522.       3522.       3522.       3522.       3522.       3522.       3522.       3522.       3521.       3521.    
        3521.       3520.       3520.       3520.       3520.       3520.       3520.       3522.       3522.       3522.    
        3523.       3523.       3523.       3525.       3525.       3525.       3528.       3528.       3528.       3534.    
        3534.       3534.       3534.       3538.       3538.       3538.       3539.       3539.       3539.       3540.    
        3540.       3540.       3538.       3538.       3538.       3537.       3537.       3537.       3537.       3537.    
        3537.       3536.       3536.       3536.       3536.       3536.       3536.       3537.       3537.       3537.    
        3538.       3538.       3538.       3538.       3538.       3542.       3542.       3543.       3546.       3550.    
        3551.       3551.       3551.       3552.       3555.       3558.       3558.       3556.       3556.       3558.    
        3560.       3561.       3561.       3563.       3568.       3571.    
  64    3533.       3528.       3523.       3522.       3522.       3523.       3520.       3515.       3509.       3509.    
        3505.       3499.       3496.       3494.       3500.       3500.       3501.       3501.       3501.       3499.    
        3499.       3499.       3499.       3500.       3500.       3500.       3499.       3499.       3499.       3499.    
        3499.       3499.       3500.       3500.       3500.       3500.       3500.       3500.       3500.       3500.    
        3500.       3503.       3503.       3503.       3505.       3505.       3505.       3505.       3505.       3505.    
        3504.       3504.       3504.       3505.       3505.       3505.       3504.       3504.       3504.       3505.    
        3505.       3505.       3505.       3505.       3505.       3507.       3507.       3507.       3508.       3508.    
        3508.       3512.       3512.       3512.       3512.       3514.       3514.       3514.       3514.       3514.    
        3514.       3513.       3513.       3513.       3514.       3514.       3514.       3516.       3516.       3516.    
        3519.       3519.       3519.       3519.       3519.       3519.       3520.       3520.       3520.       3522.    
        3522.       3522.       3522.       3522.       3522.       3522.       3522.       3522.       3521.       3521.    
        3521.       3520.       3520.       3520.       3520.       3520.       3520.       3522.       3522.       3522.    
        3523.       3523.       3523.       3525.       3525.       3525.       3528.       3528.       3528.       3534.    
        3534.       3534.       3534.       3538.       3538.       3538.       3539.       3539.       3539.       3540.    
        3540.       3540.       3538.       3538.       3538.       3537.       3537.       3537.       3537.       3537.    
        3537.       3536.       3536.       3536.       3536.       3536.       3536.       3537.       3537.       3537.    
        3538.       3538.       3538.       3538.       3538.       3542.       3542.       3543.       3546.       3550.    
        3551.       3551.       3551.       3552.       3555.       3558.       3558.       3556.       3556.       3558.    
        3560.       3561.       3561.       3563.       3568.       3571.    
  65    3536.       3533.       3531.       3528.       3528.       3526.       3523.       3517.       3512.       3512.    
        3507.       3497.       3493.       3493.       3498.       3498.       3500.       3500.       3500.       3500.    
        3500.       3500.       3500.       3495.       3495.       3495.       3495.       3495.       3495.       3498.    
        3498.       3498.       3500.       3500.       3500.       3501.       3501.       3501.       3504.       3504.    
        3504.       3509.       3509.       3509.       3510.       3510.       3510.       3508.       3508.       3508.    
        3506.       3506.       3506.       3506.       3506.       3506.       3507.       3507.       3507.       3509.    
        3509.       3509.       3511.       3511.       3511.       3513.       3513.       3513.       3515.       3515.    
        3515.       3515.       3515.       3515.       3515.       3514.       3514.       3514.       3513.       3513.    
        3513.       3512.       3512.       3512.       3513.       3513.       3513.       3516.       3516.       3516.    
        3518.       3518.       3518.       3521.       3521.       3521.       3523.       3523.       3523.       3524.    
        3524.       3524.       3522.       3522.       3522.       3521.       3521.       3521.       3521.       3521.    
        3521.       3521.       3521.       3521.       3522.       3522.       3522.       3523.       3523.       3523.    
        3523.       3523.       3523.       3524.       3524.       3524.       3526.       3526.       3526.       3530.    
        3530.       3530.       3530.       3533.       3533.       3533.       3535.       3535.       3535.       3536.    
        3536.       3536.       3536.       3536.       3536.       3537.       3537.       3537.       3537.       3537.    
        3537.       3538.       3538.       3538.       3539.       3539.       3539.       3540.       3540.       3540.    
        3540.       3540.       3540.       3540.       3540.       3542.       3542.       3546.       3550.       3555.    
        3557.       3557.       3557.       3555.       3560.       3566.       3566.       3567.       3566.       3566.    
        3566.       3565.       3565.       3566.       3569.       3570.    
  66    3536.       3533.       3531.       3528.       3528.       3526.       3523.       3517.       3512.       3512.    
        3507.       3497.       3493.       3493.       3498.       3498.       3500.       3500.       3500.       3500.    
        3500.       3500.       3500.       3495.       3495.       3495.       3495.       3495.       3495.       3498.    
        3498.       3498.       3500.       3500.       3500.       3501.       3501.       3501.       3504.       3504.    
        3504.       3509.       3509.       3509.       3510.       3510.       3510.       3508.       3508.       3508.    
        3506.       3506.       3506.       3506.       3506.       3506.       3507.       3507.       3507.       3509.    
        3509.       3509.       3511.       3511.       3511.       3513.       3513.       3513.       3515.       3515.    
        3515.       3515.       3515.       3515.       3515.       3514.       3514.       3514.       3513.       3513.    
        3513.       3512.       3512.       3512.       3513.       3513.       3513.       3516.       3516.       3516.    
        3518.       3518.       3518.       3521.       3521.       3521.       3523.       3523.       3523.       3524.    
        3524.       3524.       3522.       3522.       3522.       3521.       3521.       3521.       3521.       3521.    
        3521.       3521.       3521.       3521.       3522.       3522.       3522.       3523.       3523.       3523.    
        3523.       3523.       3523.       3524.       3524.       3524.       3526.       3526.       3526.       3530.    
        3530.       3530.       3530.       3533.       3533.       3533.       3535.       3535.       3535.       3536.    
        3536.       3536.       3536.       3536.       3536.       3537.       3537.       3537.       3537.       3537.    
        3537.       3538.       3538.       3538.       3539.       3539.       3539.       3540.       3540.       3540.    
        3540.       3540.       3540.       3540.       3540.       3542.       3542.       3546.       3550.       3555.    
        3557.       3557.       3557.       3555.       3560.       3566.       3566.       3567.       3566.       3566.    
        3566.       3565.       3565.       3566.       3569.       3570.    
  67    3536.       3533.       3531.       3528.       3528.       3526.       3523.       3517.       3512.       3512.    
        3507.       3497.       3493.       3493.       3498.       3498.       3500.       3500.       3500.       3500.    
        3500.       3500.       3500.       3495.       3495.       3495.       3495.       3495.       3495.       3498.    
        3498.       3498.       3500.       3500.       3500.       3501.       3501.       3501.       3504.       3504.    
        3504.       3509.       3509.       3509.       3510.       3510.       3510.       3508.       3508.       3508.    
        3506.       3506.       3506.       3506.       3506.       3506.       3507.       3507.       3507.       3509.    
        3509.       3509.       3511.       3511.       3511.       3513.       3513.       3513.       3515.       3515.    
        3515.       3515.       3515.       3515.       3515.       3514.       3514.       3514.       3513.       3513.    
        3513.       3512.       3512.       3512.       3513.       3513.       3513.       3516.       3516.       3516.    
        3518.       3518.       3518.       3521.       3521.       3521.       3523.       3523.       3523.       3524.    
        3524.       3524.       3522.       3522.       3522.       3521.       3521.       3521.       3521.       3521.    
        3521.       3521.       3521.       3521.       3522.       3522.       3522.       3523.       3523.       3523.    
        3523.       3523.       3523.       3524.       3524.       3524.       3526.       3526.       3526.       3530.    
        3530.       3530.       3530.       3533.       3533.       3533.       3535.       3535.       3535.       3536.    
        3536.       3536.       3536.       3536.       3536.       3537.       3537.       3537.       3537.       3537.    
        3537.       3538.       3538.       3538.       3539.       3539.       3539.       3540.       3540.       3540.    
        3540.       3540.       3540.       3540.       3540.       3542.       3542.       3546.       3550.       3555.    
        3557.       3557.       3557.       3555.       3560.       3566.       3566.       3567.       3566.       3566.    
        3566.       3565.       3565.       3566.       3569.       3570.    
  68    3536.       3537.       3534.       3530.       3530.       3528.       3526.       3520.       3514.       3514.    
        3507.       3498.       3494.       3495.       3497.       3497.       3500.       3500.       3500.       3498.    
        3498.       3498.       3498.       3495.       3495.       3495.       3496.       3496.       3496.       3501.    
        3501.       3501.       3503.       3503.       3503.       3504.       3504.       3504.       3507.       3507.    
        3507.       3509.       3509.       3509.       3511.       3511.       3511.       3510.       3510.       3510.    
        3508.       3508.       3508.       3505.       3505.       3505.       3504.       3504.       3504.       3503.    
        3503.       3503.       3506.       3506.       3506.       3510.       3510.       3510.       3514.       3514.    
        3514.       3517.       3517.       3517.       3517.       3518.       3518.       3518.       3516.       3516.    
        3516.       3516.       3516.       3516.       3517.       3517.       3517.       3517.       3517.       3517.    
        3519.       3519.       3519.       3522.       3522.       3522.       3524.       3524.       3524.       3523.    
        3523.       3523.       3523.       3523.       3523.       3524.       3524.       3524.       3524.       3524.    
        3524.       3524.       3524.       3524.       3525.       3525.       3525.       3526.       3526.       3526.    
        3528.       3528.       3528.       3528.       3528.       3528.       3528.       3528.       3528.       3528.    
        3528.       3528.       3528.       3529.       3529.       3529.       3532.       3532.       3532.       3533.    
        3533.       3533.       3533.       3533.       3533.       3534.       3534.       3534.       3537.       3537.    
        3537.       3537.       3537.       3537.       3538.       3538.       3538.       3540.       3540.       3540.    
        3542.       3542.       3542.       3543.       3543.       3544.       3544.       3546.       3558.       3560.    
        3561.       3561.       3561.       3561.       3561.       3564.       3564.       3569.       3569.       3566.    
        3565.       3564.       3564.       3564.       3568.       3572.    
  69    3536.       3537.       3534.       3530.       3530.       3528.       3526.       3520.       3514.       3514.    
        3507.       3498.       3494.       3495.       3497.       3497.       3500.       3500.       3500.       3498.    
        3498.       3498.       3498.       3495.       3495.       3495.       3496.       3496.       3496.       3501.    
        3501.       3501.       3503.       3503.       3503.       3504.       3504.       3504.       3507.       3507.    
        3507.       3509.       3509.       3509.       3511.       3511.       3511.       3510.       3510.       3510.    
        3508.       3508.       3508.       3505.       3505.       3505.       3504.       3504.       3504.       3503.    
        3503.       3503.       3506.       3506.       3506.       3510.       3510.       3510.       3514.       3514.    
        3514.       3517.       3517.       3517.       3517.       3518.       3518.       3518.       3516.       3516.    
        3516.       3516.       3516.       3516.       3517.       3517.       3517.       3517.       3517.       3517.    
        3519.       3519.       3519.       3522.       3522.       3522.       3524.       3524.       3524.       3523.    
        3523.       3523.       3523.       3523.       3523.       3524.       3524.       3524.       3524.       3524.    
        3524.       3524.       3524.       3524.       3525.       3525.       3525.       3526.       3526.       3526.    
        3528.       3528.       3528.       3528.       3528.       3528.       3528.       3528.       3528.       3528.    
        3528.       3528.       3528.       3529.       3529.       3529.       3532.       3532.       3532.       3533.    
        3533.       3533.       3533.       3533.       3533.       3534.       3534.       3534.       3537.       3537.    
        3537.       3537.       3537.       3537.       3538.       3538.       3538.       3540.       3540.       3540.    
        3542.       3542.       3542.       3543.       3543.       3544.       3544.       3546.       3558.       3560.    
        3561.       3561.       3561.       3561.       3561.       3564.       3564.       3569.       3569.       3566.    
        3565.       3564.       3564.       3564.       3568.       3572.    
  70    3536.       3537.       3534.       3530.       3530.       3528.       3526.       3520.       3514.       3514.    
        3507.       3498.       3494.       3495.       3497.       3497.       3500.       3500.       3500.       3498.    
        3498.       3498.       3498.       3495.       3495.       3495.       3496.       3496.       3496.       3501.    
        3501.       3501.       3503.       3503.       3503.       3504.       3504.       3504.       3507.       3507.    
        3507.       3509.       3509.       3509.       3511.       3511.       3511.       3510.       3510.       3510.    
        3508.       3508.       3508.       3505.       3505.       3505.       3504.       3504.       3504.       3503.    
        3503.       3503.       3506.       3506.       3506.       3510.       3510.       3510.       3514.       3514.    
        3514.       3517.       3517.       3517.       3517.       3518.       3518.       3518.       3516.       3516.    
        3516.       3516.       3516.       3516.       3517.       3517.       3517.       3517.       3517.       3517.    
        3519.       3519.       3519.       3522.       3522.       3522.       3524.       3524.       3524.       3523.    
        3523.       3523.       3523.       3523.       3523.       3524.       3524.       3524.       3524.       3524.    
        3524.       3524.       3524.       3524.       3525.       3525.       3525.       3526.       3526.       3526.    
        3528.       3528.       3528.       3528.       3528.       3528.       3528.       3528.       3528.       3528.    
        3528.       3528.       3528.       3529.       3529.       3529.       3532.       3532.       3532.       3533.    
        3533.       3533.       3533.       3533.       3533.       3534.       3534.       3534.       3537.       3537.    
        3537.       3537.       3537.       3537.       3538.       3538.       3538.       3540.       3540.       3540.    
        3542.       3542.       3542.       3543.       3543.       3544.       3544.       3546.       3558.       3560.    
        3561.       3561.       3561.       3561.       3561.       3564.       3564.       3569.       3569.       3566.    
        3565.       3564.       3564.       3564.       3568.       3572.    
  71    3537.       3537.       3536.       3531.       3531.       3531.       3527.       3524.       3518.       3518.    
        3512.       3501.       3498.       3500.       3500.       3500.       3502.       3502.       3502.       3499.    
        3499.       3499.       3499.       3496.       3496.       3496.       3498.       3498.       3498.       3504.    
        3504.       3504.       3503.       3503.       3503.       3503.       3503.       3503.       3507.       3507.    
        3507.       3506.       3506.       3506.       3506.       3506.       3506.       3508.       3508.       3508.    
        3507.       3507.       3507.       3504.       3504.       3504.       3505.       3505.       3505.       3508.    
        3508.       3508.       3512.       3512.       3512.       3518.       3518.       3518.       3521.       3521.    
        3521.       3522.       3522.       3522.       3522.       3523.       3523.       3523.       3525.       3525.    
        3525.       3526.       3526.       3526.       3527.       3527.       3527.       3527.       3527.       3527.    
        3527.       3527.       3527.       3526.       3526.       3526.       3527.       3527.       3527.       3526.    
        3526.       3526.       3526.       3526.       3526.       3528.       3528.       3528.       3530.       3530.    
        3530.       3532.       3532.       3532.       3532.       3532.       3532.       3532.       3532.       3532.    
        3533.       3533.       3533.       3534.       3534.       3534.       3535.       3535.       3535.       3534.    
        3534.       3534.       3534.       3534.       3534.       3534.       3534.       3534.       3534.       3537.    
        3537.       3537.       3541.       3541.       3541.       3542.       3542.       3542.       3543.       3543.    
        3543.       3543.       3543.       3543.       3544.       3544.       3544.       3545.       3545.       3545.    
        3547.       3547.       3547.       3551.       3551.       3555.       3555.       3557.       3558.       3563.    
        3564.       3564.       3563.       3563.       3563.       3565.       3565.       3570.       3571.       3573.    
        3570.       3569.       3569.       3572.       3579.       3582.    
  72    3537.       3537.       3536.       3531.       3531.       3531.       3527.       3524.       3518.       3518.    
        3512.       3501.       3498.       3500.       3500.       3500.       3502.       3502.       3502.       3499.    
        3499.       3499.       3499.       3496.       3496.       3496.       3498.       3498.       3498.       3504.    
        3504.       3504.       3503.       3503.       3503.       3503.       3503.       3503.       3507.       3507.    
        3507.       3506.       3506.       3506.       3506.       3506.       3506.       3508.       3508.       3508.    
        3507.       3507.       3507.       3504.       3504.       3504.       3505.       3505.       3505.       3508.    
        3508.       3508.       3512.       3512.       3512.       3518.       3518.       3518.       3521.       3521.    
        3521.       3522.       3522.       3522.       3522.       3523.       3523.       3523.       3525.       3525.    
        3525.       3526.       3526.       3526.       3527.       3527.       3527.       3527.       3527.       3527.    
        3527.       3527.       3527.       3526.       3526.       3526.       3527.       3527.       3527.       3526.    
        3526.       3526.       3526.       3526.       3526.       3528.       3528.       3528.       3530.       3530.    
        3530.       3532.       3532.       3532.       3532.       3532.       3532.       3532.       3532.       3532.    
        3533.       3533.       3533.       3534.       3534.       3534.       3535.       3535.       3535.       3534.    
        3534.       3534.       3534.       3534.       3534.       3534.       3534.       3534.       3534.       3537.    
        3537.       3537.       3541.       3541.       3541.       3542.       3542.       3542.       3543.       3543.    
        3543.       3543.       3543.       3543.       3544.       3544.       3544.       3545.       3545.       3545.    
        3547.       3547.       3547.       3551.       3551.       3555.       3555.       3557.       3558.       3563.    
        3564.       3564.       3563.       3563.       3563.       3565.       3565.       3570.       3571.       3573.    
        3570.       3569.       3569.       3572.       3579.       3582.    
  73    3537.       3537.       3536.       3531.       3531.       3531.       3527.       3524.       3518.       3518.    
        3512.       3501.       3498.       3500.       3500.       3500.       3502.       3502.       3502.       3499.    
        3499.       3499.       3499.       3496.       3496.       3496.       3498.       3498.       3498.       3504.    
        3504.       3504.       3503.       3503.       3503.       3503.       3503.       3503.       3507.       3507.    
        3507.       3506.       3506.       3506.       3506.       3506.       3506.       3508.       3508.       3508.    
        3507.       3507.       3507.       3504.       3504.       3504.       3505.       3505.       3505.       3508.    
        3508.       3508.       3512.       3512.       3512.       3518.       3518.       3518.       3521.       3521.    
        3521.       3522.       3522.       3522.       3522.       3523.       3523.       3523.       3525.       3525.    
        3525.       3526.       3526.       3526.       3527.       3527.       3527.       3527.       3527.       3527.    
        3527.       3527.       3527.       3526.       3526.       3526.       3527.       3527.       3527.       3526.    
        3526.       3526.       3526.       3526.       3526.       3528.       3528.       3528.       3530.       3530.    
        3530.       3532.       3532.       3532.       3532.       3532.       3532.       3532.       3532.       3532.    
        3533.       3533.       3533.       3534.       3534.       3534.       3535.       3535.       3535.       3534.    
        3534.       3534.       3534.       3534.       3534.       3534.       3534.       3534.       3534.       3537.    
        3537.       3537.       3541.       3541.       3541.       3542.       3542.       3542.       3543.       3543.    
        3543.       3543.       3543.       3543.       3544.       3544.       3544.       3545.       3545.       3545.    
        3547.       3547.       3547.       3551.       3551.       3555.       3555.       3557.       3558.       3563.    
        3564.       3564.       3563.       3563.       3563.       3565.       3565.       3570.       3571.       3573.    
        3570.       3569.       3569.       3572.       3579.       3582.    
  74    3543.       3539.       3538.       3535.       3535.       3533.       3531.       3527.       3522.       3522.    
        3518.       3509.       3503.       3503.       3503.       3503.       3499.       3499.       3499.       3501.    
        3501.       3501.       3501.       3500.       3500.       3500.       3499.       3499.       3499.       3504.    
        3504.       3504.       3506.       3506.       3506.       3507.       3507.       3507.       3506.       3506.    
        3506.       3507.       3507.       3507.       3507.       3507.       3507.       3507.       3507.       3507.    
        3508.       3508.       3508.       3507.       3507.       3507.       3509.       3509.       3509.       3513.    
        3513.       3513.       3519.       3519.       3519.       3525.       3525.       3525.       3528.       3528.    
        3528.       3532.       3532.       3532.       3532.       3534.       3534.       3534.       3535.       3535.    
        3535.       3537.       3537.       3537.       3537.       3537.       3537.       3537.       3537.       3537.    
        3537.       3537.       3537.       3538.       3538.       3538.       3538.       3538.       3538.       3540.    
        3540.       3540.       3539.       3539.       3539.       3541.       3541.       3541.       3540.       3540.    
        3540.       3541.       3541.       3541.       3541.       3541.       3541.       3542.       3542.       3542.    
        3542.       3542.       3542.       3545.       3545.       3545.       3547.       3547.       3547.       3546.    
        3546.       3546.       3546.       3545.       3545.       3545.       3545.       3545.       3545.       3547.    
        3547.       3547.       3551.       3551.       3551.       3553.       3553.       3553.       3553.       3553.    
        3553.       3552.       3552.       3552.       3553.       3553.       3553.       3554.       3554.       3554.    
        3554.       3554.       3554.       3555.       3555.       3559.       3559.       3563.       3562.       3563.    
        3568.       3568.       3569.       3570.       3570.       3570.       3570.       3570.       3571.       3572.    
        3573.       3573.       3573.       3576.       3580.       3582.    
  75    3543.       3539.       3538.       3535.       3535.       3533.       3531.       3527.       3522.       3522.    
        3518.       3509.       3503.       3503.       3503.       3503.       3499.       3499.       3499.       3501.    
        3501.       3501.       3501.       3500.       3500.       3500.       3499.       3499.       3499.       3504.    
        3504.       3504.       3506.       3506.       3506.       3507.       3507.       3507.       3506.       3506.    
        3506.       3507.       3507.       3507.       3507.       3507.       3507.       3507.       3507.       3507.    
        3508.       3508.       3508.       3507.       3507.       3507.       3509.       3509.       3509.       3513.    
        3513.       3513.       3519.       3519.       3519.       3525.       3525.       3525.       3528.       3528.    
        3528.       3532.       3532.       3532.       3532.       3534.       3534.       3534.       3535.       3535.    
        3535.       3537.       3537.       3537.       3537.       3537.       3537.       3537.       3537.       3537.    
        3537.       3537.       3537.       3538.       3538.       3538.       3538.       3538.       3538.       3540.    
        3540.       3540.       3539.       3539.       3539.       3541.       3541.       3541.       3540.       3540.    
        3540.       3541.       3541.       3541.       3541.       3541.       3541.       3542.       3542.       3542.    
        3542.       3542.       3542.       3545.       3545.       3545.       3547.       3547.       3547.       3546.    
        3546.       3546.       3546.       3545.       3545.       3545.       3545.       3545.       3545.       3547.    
        3547.       3547.       3551.       3551.       3551.       3553.       3553.       3553.       3553.       3553.    
        3553.       3552.       3552.       3552.       3553.       3553.       3553.       3554.       3554.       3554.    
        3554.       3554.       3554.       3555.       3555.       3559.       3559.       3563.       3562.       3563.    
        3568.       3568.       3569.       3570.       3570.       3570.       3570.       3570.       3571.       3572.    
        3573.       3573.       3573.       3576.       3580.       3582.    
  76    3547.       3545.       3541.       3538.       3538.       3535.       3533.       3530.       3525.       3525.    
        3520.       3514.       3508.       3505.       3503.       3503.       3495.       3495.       3495.       3500.    
        3500.       3500.       3500.       3500.       3500.       3500.       3501.       3501.       3501.       3502.    
        3502.       3502.       3504.       3504.       3504.       3504.       3504.       3504.       3506.       3506.    
        3506.       3509.       3509.       3509.       3509.       3509.       3509.       3509.       3509.       3509.    
        3509.       3509.       3509.       3511.       3511.       3511.       3514.       3514.       3514.       3520.    
        3520.       3520.       3527.       3527.       3527.       3532.       3532.       3532.       3533.       3533.    
        3533.       3535.       3535.       3535.       3535.       3538.       3538.       3538.       3539.       3539.    
        3539.       3538.       3538.       3538.       3539.       3539.       3539.       3542.       3542.       3542.    
        3543.       3543.       3543.       3543.       3543.       3543.       3543.       3543.       3543.       3545.    
        3545.       3545.       3547.       3547.       3547.       3547.       3547.       3547.       3546.       3546.    
        3546.       3545.       3545.       3545.       3547.       3547.       3547.       3547.       3547.       3547.    
        3548.       3548.       3548.       3550.       3550.       3550.       3552.       3552.       3552.       3551.    
        3551.       3551.       3551.       3551.       3551.       3551.       3552.       3552.       3552.       3552.    
        3552.       3552.       3554.       3554.       3554.       3556.       3556.       3556.       3559.       3559.    
        3559.       3559.       3559.       3559.       3560.       3560.       3560.       3561.       3561.       3561.    
        3560.       3560.       3560.       3559.       3559.       3560.       3560.       3564.       3565.       3567.    
        3568.       3568.       3575.       3577.       3576.       3575.       3575.       3574.       3573.       3574.    
        3575.       3576.       3576.       3579.       3583.       3583.    
  77    3547.       3545.       3541.       3538.       3538.       3535.       3533.       3530.       3525.       3525.    
        3520.       3514.       3508.       3505.       3503.       3503.       3495.       3495.       3495.       3500.    
        3500.       3500.       3500.       3500.       3500.       3500.       3501.       3501.       3501.       3502.    
        3502.       3502.       3504.       3504.       3504.       3504.       3504.       3504.       3506.       3506.    
        3506.       3509.       3509.       3509.       3509.       3509.       3509.       3509.       3509.       3509.    
        3509.       3509.       3509.       3511.       3511.       3511.       3514.       3514.       3514.       3520.    
        3520.       3520.       3527.       3527.       3527.       3532.       3532.       3532.       3533.       3533.    
        3533.       3535.       3535.       3535.       3535.       3538.       3538.       3538.       3539.       3539.    
        3539.       3538.       3538.       3538.       3539.       3539.       3539.       3542.       3542.       3542.    
        3543.       3543.       3543.       3543.       3543.       3543.       3543.       3543.       3543.       3545.    
        3545.       3545.       3547.       3547.       3547.       3547.       3547.       3547.       3546.       3546.    
        3546.       3545.       3545.       3545.       3547.       3547.       3547.       3547.       3547.       3547.    
        3548.       3548.       3548.       3550.       3550.       3550.       3552.       3552.       3552.       3551.    
        3551.       3551.       3551.       3551.       3551.       3551.       3552.       3552.       3552.       3552.    
        3552.       3552.       3554.       3554.       3554.       3556.       3556.       3556.       3559.       3559.    
        3559.       3559.       3559.       3559.       3560.       3560.       3560.       3561.       3561.       3561.    
        3560.       3560.       3560.       3559.       3559.       3560.       3560.       3564.       3565.       3567.    
        3568.       3568.       3575.       3577.       3576.       3575.       3575.       3574.       3573.       3574.    
        3575.       3576.       3576.       3579.       3583.       3583.    
  78    3546.       3543.       3539.       3537.       3537.       3536.       3531.       3528.       3525.       3525.    
        3521.       3517.       3509.       3507.       3508.       3508.       3504.       3504.       3504.       3501.    
        3501.       3501.       3501.       3499.       3499.       3499.       3500.       3500.       3500.       3505.    
        3505.       3505.       3504.       3504.       3504.       3503.       3503.       3503.       3506.       3506.    
        3506.       3511.       3511.       3511.       3512.       3512.       3512.       3512.       3512.       3512.    
        3510.       3510.       3510.       3514.       3514.       3514.       3518.       3518.       3518.       3524.    
        3524.       3524.       3529.       3529.       3529.       3535.       3535.       3535.       3536.       3536.    
        3536.       3536.       3536.       3536.       3536.       3537.       3537.       3537.       3540.       3540.    
        3540.       3540.       3540.       3540.       3542.       3542.       3542.       3543.       3543.       3543.    
        3540.       3540.       3540.       3540.       3540.       3540.       3543.       3543.       3543.       3545.    
        3545.       3545.       3549.       3549.       3549.       3551.       3551.       3551.       3549.       3549.    
        3549.       3547.       3547.       3547.       3546.       3546.       3546.       3548.       3548.       3548.    
        3550.       3550.       3550.       3552.       3552.       3552.       3552.       3552.       3552.       3552.    
        3552.       3552.       3552.       3553.       3553.       3553.       3554.       3554.       3554.       3555.    
        3555.       3555.       3557.       3557.       3557.       3561.       3561.       3561.       3562.       3562.    
        3562.       3562.       3562.       3562.       3563.       3563.       3563.       3563.       3563.       3563.    
        3563.       3563.       3563.       3564.       3564.       3565.       3565.       3569.       3574.       3574.    
        3575.       3575.       3575.       3580.       3578.       3579.       3579.       3577.       3577.       3580.    
        3583.       3586.       3586.       3588.       3588.       3589.    
  79    3546.       3543.       3540.       3540.       3540.       3540.       3537.       3530.       3526.       3526.    
        3523.       3519.       3512.       3508.       3504.       3504.       3498.       3498.       3498.       3497.    
        3497.       3497.       3497.       3500.       3500.       3500.       3500.       3500.       3500.       3498.    
        3498.       3498.       3500.       3500.       3500.       3501.       3501.       3501.       3504.       3504.    
        3504.       3510.       3510.       3510.       3513.       3513.       3513.       3511.       3511.       3511.    
        3510.       3510.       3510.       3516.       3516.       3516.       3523.       3523.       3523.       3526.    
        3526.       3526.       3530.       3530.       3530.       3536.       3536.       3536.       3539.       3539.    
        3539.       3538.       3538.       3538.       3538.       3537.       3537.       3537.       3539.       3539.    
        3539.       3541.       3541.       3541.       3543.       3543.       3543.       3544.       3544.       3544.    
        3542.       3542.       3542.       3544.       3544.       3544.       3548.       3548.       3548.       3552.    
        3552.       3552.       3554.       3554.       3554.       3557.       3557.       3557.       3558.       3558.    
        3558.       3557.       3557.       3557.       3555.       3555.       3555.       3557.       3557.       3557.    
        3556.       3556.       3556.       3555.       3555.       3555.       3555.       3555.       3555.       3556.    
        3556.       3556.       3556.       3559.       3559.       3559.       3559.       3559.       3559.       3560.    
        3560.       3560.       3562.       3562.       3562.       3566.       3566.       3566.       3566.       3566.    
        3566.       3565.       3565.       3565.       3564.       3564.       3564.       3562.       3562.       3562.    
        3562.       3562.       3562.       3564.       3564.       3569.       3569.       3576.       3579.       3578.    
        3578.       3578.       3580.       3582.       3582.       3583.       3583.       3583.       3580.       3583.    
        3584.       3586.       3586.       3588.       3588.       3587.    
  80    3550.       3548.       3544.       3543.       3543.       3541.       3539.       3531.       3527.       3527.    
        3524.       3520.       3515.       3507.       3499.       3499.       3494.       3494.       3494.       3493.    
        3493.       3493.       3493.       3497.       3497.       3497.       3499.       3499.       3499.       3500.    
        3500.       3500.       3503.       3503.       3503.       3504.       3504.       3504.       3504.       3504.    
        3504.       3506.       3506.       3506.       3509.       3509.       3509.       3508.       3508.       3508.    
        3509.       3509.       3509.       3516.       3516.       3516.       3525.       3525.       3525.       3527.    
        3527.       3527.       3530.       3530.       3530.       3533.       3533.       3533.       3536.       3536.    
        3536.       3536.       3536.       3536.       3536.       3538.       3538.       3538.       3540.       3540.    
        3540.       3540.       3540.       3540.       3542.       3542.       3542.       3544.       3544.       3544.    
        3548.       3548.       3548.       3547.       3547.       3547.       3553.       3553.       3553.       3556.    
        3556.       3556.       3558.       3558.       3558.       3560.       3560.       3560.       3564.       3564.    
        3564.       3565.       3565.       3565.       3563.       3563.       3563.       3562.       3562.       3562.    
        3560.       3560.       3560.       3557.       3557.       3557.       3556.       3556.       3556.       3559.    
        3559.       3559.       3559.       3564.       3564.       3564.       3567.       3567.       3567.       3568.    
        3568.       3568.       3570.       3570.       3570.       3571.       3571.       3571.       3571.       3571.    
        3571.       3570.       3570.       3570.       3570.       3570.       3570.       3568.       3568.       3568.    
        3570.       3570.       3570.       3572.       3572.       3575.       3575.       3579.       3581.       3580.    
        3582.       3582.       3583.       3582.       3581.       3583.       3583.       3582.       3582.       3582.    
        3584.       3587.       3587.       3589.       3589.       3588.    
  81    3554.       3553.       3548.       3543.       3543.       3540.       3537.       3532.       3528.       3528.    
        3527.       3523.       3517.       3509.       3499.       3499.       3495.       3495.       3495.       3496.    
        3496.       3496.       3496.       3495.       3495.       3495.       3500.       3500.       3500.       3503.    
        3503.       3503.       3503.       3503.       3503.       3504.       3504.       3504.       3505.       3505.    
        3505.       3507.       3507.       3507.       3508.       3508.       3508.       3508.       3508.       3508.    
        3511.       3511.       3511.       3517.       3517.       3517.       3524.       3524.       3524.       3524.    
        3524.       3524.       3526.       3526.       3526.       3530.       3530.       3530.       3533.       3533.    
        3533.       3536.       3536.       3536.       3536.       3539.       3539.       3539.       3542.       3542.    
        3542.       3542.       3542.       3542.       3542.       3542.       3542.       3546.       3546.       3546.    
        3551.       3551.       3551.       3554.       3554.       3554.       3556.       3556.       3556.       3557.    
        3557.       3557.       3560.       3560.       3560.       3565.       3565.       3565.       3569.       3569.    
        3569.       3572.       3572.       3572.       3571.       3571.       3571.       3566.       3566.       3566.    
        3566.       3566.       3566.       3566.       3566.       3566.       3569.       3569.       3569.       3571.    
        3571.       3571.       3571.       3575.       3575.       3575.       3576.       3576.       3576.       3574.    
        3574.       3574.       3573.       3573.       3573.       3574.       3574.       3574.       3578.       3578.    
        3578.       3581.       3581.       3581.       3582.       3582.       3582.       3581.       3581.       3581.    
        3579.       3579.       3579.       3578.       3578.       3577.       3577.       3579.       3580.       3580.    
        3580.       3580.       3580.       3580.       3581.       3587.       3587.       3590.       3592.       3590.    
        3589.       3592.       3592.       3594.       3595.       3596.    
  82    3554.       3553.       3548.       3543.       3543.       3540.       3537.       3532.       3528.       3528.    
        3527.       3523.       3517.       3509.       3499.       3499.       3495.       3495.       3495.       3496.    
        3496.       3496.       3496.       3495.       3495.       3495.       3500.       3500.       3500.       3503.    
        3503.       3503.       3503.       3503.       3503.       3504.       3504.       3504.       3505.       3505.    
        3505.       3507.       3507.       3507.       3508.       3508.       3508.       3508.       3508.       3508.    
        3511.       3511.       3511.       3517.       3517.       3517.       3524.       3524.       3524.       3524.    
        3524.       3524.       3526.       3526.       3526.       3530.       3530.       3530.       3533.       3533.    
        3533.       3536.       3536.       3536.       3536.       3539.       3539.       3539.       3542.       3542.    
        3542.       3542.       3542.       3542.       3542.       3542.       3542.       3546.       3546.       3546.    
        3551.       3551.       3551.       3554.       3554.       3554.       3556.       3556.       3559.       3557.    
        3557.       3557.       3560.       3560.       3560.       3565.       3565.       3565.       3569.       3569.    
        3569.       3572.       3572.       3572.       3571.       3571.       3571.       3566.       3566.       3566.    
        3566.       3566.       3566.       3566.       3566.       3566.       3569.       3569.       3584.       3571.    
        3571.       3571.       3571.       3575.       3575.       3575.       3576.       3576.       3576.       3574.    
        3574.       3574.       3573.       3573.       3573.       3574.       3574.       3574.       3578.       3578.    
        3578.       3581.       3581.       3581.       3582.       3582.       3582.       3580.       3581.       3581.    
        3579.       3579.       3579.       3578.       3578.       3577.       3577.       3579.       3580.       3580.    
        3580.       3580.       3580.       3580.       3581.       3587.       3587.       3590.       3592.       3590.    
        3589.       3592.       3592.       3594.       3595.       3596.    
  83    3553.       3551.       3547.       3543.       3543.       3539.       3536.       3532.       3529.       3529.    
        3528.       3525.       3520.       3509.       3502.       3502.       3495.       3495.       3495.       3492.    
        3492.       3492.       3492.       3496.       3496.       3496.       3501.       3501.       3501.       3502.    
        3502.       3502.       3505.       3505.       3505.       3506.       3506.       3506.       3507.       3507.    
        3507.       3509.       3509.       3509.       3510.       3510.       3510.       3511.       3511.       3511.    
        3512.       3512.       3512.       3517.       3517.       3517.       3524.       3524.       3524.       3526.    
        3526.       3526.       3524.       3524.       3524.       3525.       3525.       3525.       3529.       3529.    
        3529.       3533.       3533.       3533.       3533.       3537.       3537.       3537.       3540.       3540.    
        3540.       3542.       3542.       3542.       3545.       3545.       3545.       3550.       3550.       3550.    
        3555.       3555.       3555.       3558.       3558.       3558.       3559.       3559.       3559.       3559.    
        3559.       3559.       3560.       3560.       3560.       3566.       3566.       3566.       3571.       3571.    
        3571.       3574.       3574.       3574.       3576.       3576.       3576.       3575.       3575.       3575.    
        3575.       3575.       3575.       3580.       3580.       3580.       3584.       3584.       3584.       3587.    
        3587.       3587.       3587.       3585.       3585.       3585.       3582.       3582.       3582.       3580.    
        3580.       3580.       3578.       3578.       3578.       3581.       3581.       3581.       3584.       3584.    
        3584.       3582.       3582.       3582.       3581.       3581.       3581.       3580.       3580.       3580.    
        3578.       3578.       3578.       3578.       3578.       3579.       3579.       3579.       3580.       3579.    
        3580.       3580.       3580.       3581.       3585.       3587.       3587.       3599.       3603.       3606.    
        3606.       3607.       3607.       3609.       3611.       3611.    
  84    3552.       3549.       3545.       3541.       3541.       3538.       3534.       3532.       3528.       3528.    
        3526.       3522.       3518.       3512.       3503.       3503.       3495.       3495.       3495.       3495.    
        3495.       3495.       3495.       3498.       3498.       3498.       3501.       3501.       3501.       3502.    
        3502.       3502.       3503.       3503.       3503.       3504.       3504.       3504.       3506.       3506.    
        3506.       3510.       3510.       3510.       3511.       3511.       3511.       3512.       3512.       3512.    
        3511.       3511.       3511.       3518.       3518.       3518.       3531.       3531.       3531.       3534.    
        3534.       3534.       3529.       3529.       3529.       3525.       3525.       3525.       3526.       3526.    
        3526.       3531.       3531.       3531.       3531.       3534.       3534.       3534.       3537.       3537.    
        3537.       3538.       3538.       3538.       3542.       3542.       3542.       3548.       3548.       3548.    
        3556.       3556.       3556.       3557.       3557.       3557.       3557.       3557.       3557.       3558.    
        3558.       3558.       3560.       3560.       3560.       3565.       3565.       3565.       3570.       3570.    
        3570.       3576.       3576.       3576.       3578.       3578.       3578.       3578.       3578.       3578.    
        3577.       3577.       3577.       3579.       3579.       3579.       3581.       3581.       3581.       3583.    
        3583.       3583.       3583.       3585.       3585.       3585.       3588.       3588.       3588.       3588.    
        3588.       3588.       3588.       3588.       3588.       3589.       3589.       3589.       3591.       3591.    
        3591.       3592.       3592.       3592.       3588.       3588.       3588.       3583.       3583.       3583.    
        3580.       3580.       3580.       3579.       3579.       3578.       3578.       3578.       3581.       3583.    
        3584.       3584.       3585.       3588.       3593.       3598.       3598.       3599.       3608.       3608.    
        3610.       3613.       3613.       3615.       3613.       3612.    
  85    3552.       3550.       3546.       3542.       3542.       3538.       3534.       3531.       3528.       3528.    
        3526.       3522.       3516.       3510.       3504.       3504.       3497.       3497.       3497.       3498.    
        3498.       3498.       3498.       3504.       3504.       3504.       3500.       3500.       3500.       3499.    
        3499.       3499.       3500.       3500.       3500.       3502.       3502.       3502.       3506.       3506.    
        3506.       3511.       3511.       3511.       3511.       3511.       3511.       3510.       3510.       3510.    
        3513.       3513.       3513.       3519.       3519.       3519.       3533.       3533.       3533.       3536.    
        3536.       3536.       3539.       3539.       3539.       3532.       3532.       3532.       3530.       3530.    
        3530.       3534.       3534.       3534.       3534.       3536.       3536.       3536.       3536.       3536.    
        3536.       3536.       3536.       3536.       3540.       3540.       3540.       3545.       3545.       3545.    
        3552.       3552.       3552.       3558.       3558.       3558.       3557.       3557.       3557.       3557.    
        3557.       3557.       3562.       3562.       3562.       3568.       3568.       3568.       3572.       3572.    
        3572.       3574.       3574.       3574.       3577.       3577.       3577.       3582.       3582.       3582.    
        3584.       3584.       3584.       3583.       3583.       3583.       3583.       3583.       3583.       3586.    
        3586.       3586.       3586.       3589.       3589.       3589.       3592.       3592.       3592.       3593.    
        3593.       3593.       3593.       3593.       3593.       3594.       3594.       3594.       3600.       3600.    
        3600.       3601.       3601.       3601.       3600.       3600.       3600.       3594.       3594.       3594.    
        3589.       3589.       3589.       3588.       3588.       3587.       3587.       3586.       3588.       3589.    
        3589.       3589.       3592.       3596.       3600.       3605.       3605.       3608.       3608.       3613.    
        3612.       3614.       3614.       3616.       3618.       3617.    
  86    3557.       3550.       3546.       3544.       3544.       3541.       3536.       3531.       3526.       3526.    
        3521.       3516.       3510.       3505.       3501.       3501.       3501.       3501.       3501.       3505.    
        3505.       3505.       3505.       3505.       3505.       3505.       3503.       3503.       3503.       3499.    
        3499.       3499.       3500.       3500.       3500.       3503.       3503.       3503.       3507.       3507.    
        3507.       3509.       3509.       3509.       3509.       3509.       3509.       3508.       3508.       3508.    
        3512.       3512.       3512.       3517.       3517.       3517.       3530.       3530.       3530.       3545.    
        3545.       3545.       3546.       3546.       3546.       3541.       3541.       3541.       3536.       3536.    
        3536.       3538.       3538.       3538.       3538.       3537.       3537.       3537.       3538.       3538.    
        3538.       3540.       3540.       3540.       3541.       3541.       3541.       3543.       3543.       3543.    
        3547.       3547.       3547.       3553.       3553.       3553.       3558.       3558.       3558.       3561.    
        3561.       3561.       3569.       3569.       3569.       3577.       3577.       3577.       3579.       3579.    
        3579.       3578.       3578.       3578.       3581.       3581.       3581.       3585.       3585.       3585.    
        3587.       3587.       3587.       3588.       3588.       3588.       3589.       3589.       3589.       3591.    
        3591.       3591.       3591.       3593.       3593.       3593.       3595.       3595.       3595.       3594.    
        3594.       3594.       3594.       3594.       3594.       3597.       3597.       3597.       3600.       3600.    
        3600.       3600.       3600.       3600.       3602.       3602.       3602.       3603.       3603.       3603.    
        3599.       3599.       3599.       3596.       3596.       3593.       3593.       3592.       3593.       3596.    
        3597.       3597.       3599.       3601.       3601.       3603.       3603.       3609.       3612.       3613.    
        3612.       3614.       3614.       3616.       3617.       3617.    
  87    3557.       3550.       3546.       3544.       3544.       3541.       3536.       3531.       3526.       3526.    
        3521.       3516.       3510.       3505.       3501.       3501.       3501.       3501.       3501.       3505.    
        3505.       3505.       3505.       3505.       3505.       3505.       3503.       3503.       3503.       3499.    
        3499.       3499.       3500.       3500.       3500.       3503.       3503.       3503.       3507.       3507.    
        3507.       3509.       3509.       3509.       3509.       3509.       3509.       3508.       3508.       3508.    
        3512.       3512.       3512.       3517.       3517.       3517.       3530.       3530.       3530.       3545.    
        3545.       3545.       3546.       3546.       3546.       3541.       3541.       3541.       3536.       3536.    
        3536.       3538.       3538.       3538.       3538.       3537.       3537.       3537.       3538.       3538.    
        3538.       3540.       3540.       3540.       3541.       3541.       3541.       3543.       3543.       3543.    
        3547.       3547.       3547.       3553.       3553.       3553.       3558.       3558.       3558.       3561.    
        3561.       3561.       3569.       3569.       3569.       3577.       3577.       3577.       3579.       3579.    
        3579.       3578.       3578.       3578.       3581.       3581.       3581.       3585.       3585.       3585.    
        3587.       3587.       3587.       3588.       3588.       3588.       3589.       3589.       3589.       3591.    
        3591.       3591.       3591.       3593.       3593.       3593.       3595.       3595.       3595.       3594.    
        3594.       3594.       3594.       3594.       3594.       3597.       3597.       3597.       3600.       3600.    
        3600.       3600.       3600.       3600.       3602.       3602.       3602.       3603.       3603.       3603.    
        3599.       3599.       3599.       3596.       3596.       3593.       3593.       3592.       3593.       3596.    
        3597.       3597.       3599.       3601.       3601.       3603.       3603.       3609.       3612.       3613.    
        3612.       3614.       3614.       3616.       3617.       3617.    
  88    3560.       3553.       3549.       3546.       3546.       3543.       3538.       3532.       3526.       3526.    
        3520.       3516.       3508.       3505.       3506.       3506.       3500.       3500.       3500.       3504.    
        3504.       3504.       3504.       3507.       3507.       3507.       3505.       3505.       3505.       3501.    
        3501.       3501.       3502.       3502.       3502.       3505.       3505.       3505.       3506.       3506.    
        3506.       3511.       3511.       3511.       3510.       3510.       3510.       3511.       3511.       3511.    
        3513.       3513.       3513.       3518.       3518.       3518.       3531.       3531.       3531.       3545.    
        3545.       3545.       3546.       3546.       3546.       3541.       3541.       3541.       3541.       3541.    
        3541.       3540.       3540.       3540.       3540.       3537.       3537.       3537.       3537.       3537.    
        3537.       3538.       3538.       3538.       3540.       3540.       3540.       3541.       3541.       3541.    
        3542.       3542.       3542.       3545.       3545.       3545.       3551.       3551.       3551.       3561.    
        3561.       3561.       3571.       3571.       3571.       3578.       3578.       3578.       3581.       3581.    
        3581.       3582.       3582.       3582.       3584.       3584.       3584.       3585.       3585.       3585.    
        3585.       3585.       3585.       3586.       3586.       3586.       3587.       3587.       3587.       3588.    
        3588.       3588.       3588.       3589.       3589.       3589.       3593.       3593.       3593.       3596.    
        3596.       3596.       3596.       3596.       3596.       3598.       3598.       3598.       3598.       3598.    
        3598.       3600.       3600.       3600.       3602.       3602.       3602.       3605.       3605.       3605.    
        3605.       3605.       3605.       3603.       3603.       3602.       3602.       3597.       3595.       3596.    
        3598.       3598.       3601.       3603.       3603.       3603.       3603.       3606.       3609.       3611.    
        3616.       3619.       3619.       3620.       3618.       3618.    
  89    3559.       3553.       3548.       3543.       3543.       3540.       3536.       3531.       3525.       3525.    
        3519.       3514.       3512.       3507.       3508.       3508.       3506.       3506.       3506.       3508.    
        3508.       3508.       3508.       3502.       3502.       3502.       3502.       3502.       3502.       3502.    
        3502.       3502.       3504.       3504.       3504.       3504.       3504.       3504.       3507.       3507.    
        3507.       3509.       3509.       3509.       3517.       3517.       3517.       3518.       3518.       3518.    
        3517.       3517.       3517.       3521.       3521.       3521.       3529.       3529.       3529.       3543.    
        3543.       3543.       3546.       3546.       3546.       3547.       3547.       3547.       3546.       3546.    
        3546.       3543.       3543.       3543.       3543.       3539.       3539.       3539.       3539.       3539.    
        3539.       3538.       3538.       3538.       3537.       3537.       3537.       3538.       3538.       3538.    
        3540.       3540.       3540.       3546.       3546.       3546.       3551.       3551.       3551.       3556.    
        3556.       3556.       3566.       3566.       3566.       3576.       3576.       3576.       3581.       3581.    
        3581.       3581.       3581.       3581.       3586.       3586.       3586.       3586.       3586.       3586.    
        3584.       3584.       3584.       3583.       3583.       3583.       3584.       3584.       3584.       3586.    
        3586.       3586.       3586.       3591.       3591.       3591.       3594.       3594.       3594.       3596.    
        3596.       3596.       3597.       3597.       3597.       3598.       3598.       3598.       3599.       3599.    
        3599.       3603.       3603.       3603.       3603.       3603.       3603.       3607.       3607.       3607.    
        3611.       3611.       3611.       3608.       3608.       3605.       3605.       3603.       3602.       3602.    
        3599.       3599.       3599.       3601.       3603.       3605.       3605.       3609.       3612.       3616.    
        3616.       3621.       3621.       3625.       3622.       3622.    



                       INITIAL HEAD FOR LAYER   3
 READING ON UNIT   13 WITH FORMAT: (FREE)              

            1           2           3           4           5           6           7           8           9          10
           11          12          13          14          15          16          17          18          19          20
           21          22          23          24          25          26          27          28          29          30
           31          32          33          34          35          36          37          38          39          40
           41          42          43          44          45          46          47          48          49          50
           51          52          53          54          55          56          57          58          59          60
           61          62          63          64          65          66          67          68          69          70
           71          72          73          74          75          76          77          78          79          80
           81          82          83          84          85          86          87          88          89          90
           91          92          93          94          95          96          97          98          99         100
          101         102         103         104         105         106         107         108         109         110
          111         112         113         114         115         116         117         118         119         120
          121         122         123         124         125         126         127         128         129         130
          131         132         133         134         135         136         137         138         139         140
          141         142         143         144         145         146         147         148         149         150
          151         152         153         154         155         156         157         158         159         160
          161         162         163         164         165         166         167         168         169         170
          171         172         173         174         175         176         177         178         179         180
          181         182         183         184         185         186
 ........................................................................................................................
   1    3478.       3484.       3487.       3485.       3485.       3480.       3484.       3483.       3483.       3483.    
        3479.       3477.       3479.       3485.       3492.       3492.       3496.       3496.       3496.       3501.    
        3501.       3501.       3501.       3502.       3502.       3502.       3513.       3513.       3513.       3521.    
        3521.       3521.       3531.       3531.       3531.       3528.       3528.       3528.       3529.       3529.    
        3529.       3531.       3531.       3531.       3530.       3530.       3530.       3530.       3530.       3530.    
        3529.       3529.       3529.       3530.       3530.       3530.       3531.       3531.       3531.       3532.    
        3532.       3532.       3532.       3532.       3532.       3534.       3534.       3534.       3535.       3535.    
        3535.       3535.       3535.       3535.       3535.       3535.       3535.       3535.       3538.       3538.    
        3538.       3538.       3538.       3538.       3540.       3540.       3540.       3539.       3539.       3539.    
        3538.       3538.       3538.       3541.       3541.       3541.       3545.       3545.       3545.       3552.    
        3552.       3552.       3556.       3556.       3556.       3562.       3562.       3562.       3569.       3569.    
        3569.       3575.       3575.       3575.       3583.       3583.       3583.       3589.       3589.       3589.    
        3591.       3591.       3591.       3592.       3592.       3592.       3592.       3592.       3592.       3592.    
        3592.       3592.       3592.       3590.       3590.       3590.       3591.       3591.       3591.       3595.    
        3595.       3595.       3595.       3595.       3595.       3597.       3597.       3597.       3598.       3598.    
        3598.       3598.       3598.       3598.       3600.       3600.       3600.       3597.       3597.       3597.    
        3595.       3595.       3595.       3595.       3595.       3596.       3596.       3596.       3597.       3598.    
        3598.       3598.       3600.       3603.       3605.       3607.       3607.       3608.       3609.       3611.    
        3612.       3610.       3610.       3609.       3613.       3615.    
   2    3480.       3480.       3486.       3489.       3489.       3483.       3481.       3480.       3481.       3481.    
        3478.       3478.       3482.       3489.       3496.       3496.       3496.       3496.       3496.       3499.    
        3499.       3499.       3499.       3502.       3502.       3502.       3509.       3509.       3509.       3517.    
        3517.       3517.       3525.       3525.       3525.       3528.       3528.       3528.       3530.       3530.    
        3530.       3530.       3530.       3530.       3529.       3529.       3529.       3529.       3529.       3529.    
        3528.       3528.       3528.       3530.       3530.       3530.       3530.       3530.       3530.       3531.    
        3531.       3531.       3531.       3531.       3531.       3533.       3533.       3533.       3533.       3533.    
        3533.       3534.       3534.       3534.       3534.       3536.       3536.       3536.       3537.       3537.    
        3537.       3538.       3538.       3538.       3538.       3538.       3538.       3538.       3538.       3538.    
        3537.       3537.       3537.       3540.       3540.       3540.       3544.       3544.       3544.       3545.    
        3545.       3545.       3548.       3548.       3548.       3554.       3554.       3554.       3563.       3563.    
        3563.       3575.       3575.       3575.       3585.       3585.       3585.       3589.       3589.       3589.    
        3590.       3590.       3590.       3588.       3588.       3588.       3588.       3588.       3588.       3591.    
        3591.       3591.       3591.       3591.       3591.       3591.       3594.       3594.       3594.       3596.    
        3596.       3596.       3597.       3597.       3597.       3597.       3597.       3597.       3597.       3597.    
        3597.       3597.       3597.       3597.       3598.       3598.       3598.       3596.       3596.       3596.    
        3595.       3595.       3595.       3595.       3595.       3598.       3598.       3599.       3598.       3599.    
        3599.       3599.       3601.       3602.       3603.       3603.       3603.       3605.       3605.       3605.    
        3608.       3612.       3612.       3611.       3615.       3617.    
   3    3480.       3477.       3485.       3484.       3484.       3480.       3480.       3480.       3478.       3478.    
        3478.       3481.       3485.       3492.       3497.       3497.       3497.       3497.       3497.       3497.    
        3497.       3497.       3497.       3500.       3500.       3500.       3505.       3505.       3505.       3510.    
        3510.       3510.       3517.       3517.       3517.       3524.       3524.       3524.       3528.       3528.    
        3528.       3529.       3529.       3529.       3531.       3531.       3531.       3531.       3531.       3531.    
        3528.       3528.       3528.       3528.       3528.       3528.       3528.       3528.       3528.       3529.    
        3529.       3529.       3531.       3531.       3531.       3533.       3533.       3533.       3533.       3533.    
        3533.       3534.       3534.       3534.       3534.       3535.       3535.       3535.       3535.       3535.    
        3535.       3537.       3537.       3537.       3538.       3538.       3538.       3535.       3535.       3535.    
        3534.       3534.       3534.       3538.       3538.       3538.       3542.       3542.       3542.       3541.    
        3541.       3541.       3541.       3541.       3541.       3545.       3545.       3545.       3553.       3553.    
        3553.       3565.       3565.       3565.       3578.       3578.       3578.       3586.       3586.       3586.    
        3587.       3587.       3587.       3585.       3585.       3585.       3585.       3585.       3585.       3588.    
        3588.       3588.       3588.       3590.       3590.       3590.       3591.       3591.       3591.       3592.    
        3592.       3592.       3593.       3593.       3593.       3594.       3594.       3594.       3595.       3595.    
        3595.       3597.       3597.       3597.       3596.       3596.       3596.       3595.       3595.       3595.    
        3596.       3596.       3596.       3596.       3596.       3597.       3597.       3597.       3596.       3596.    
        3597.       3597.       3597.       3598.       3600.       3603.       3603.       3606.       3607.       3608.    
        3612.       3614.       3614.       3613.       3617.       3617.    
   4    3480.       3477.       3483.       3482.       3482.       3480.       3480.       3480.       3480.       3480.    
        3480.       3482.       3484.       3488.       3495.       3495.       3496.       3496.       3496.       3497.    
        3497.       3497.       3497.       3501.       3501.       3501.       3506.       3506.       3506.       3507.    
        3507.       3507.       3509.       3509.       3509.       3517.       3517.       3517.       3524.       3524.    
        3524.       3530.       3530.       3530.       3531.       3531.       3531.       3531.       3531.       3531.    
        3531.       3531.       3531.       3531.       3531.       3531.       3531.       3531.       3531.       3531.    
        3531.       3531.       3532.       3532.       3532.       3533.       3533.       3533.       3535.       3535.    
        3535.       3535.       3535.       3535.       3535.       3534.       3534.       3534.       3535.       3535.    
        3535.       3537.       3537.       3537.       3536.       3536.       3536.       3535.       3535.       3535.    
        3534.       3534.       3534.       3538.       3538.       3538.       3543.       3543.       3543.       3543.    
        3543.       3543.       3541.       3541.       3541.       3542.       3542.       3542.       3546.       3546.    
        3546.       3551.       3551.       3551.       3557.       3557.       3557.       3567.       3567.       3567.    
        3576.       3576.       3576.       3582.       3582.       3582.       3585.       3585.       3585.       3587.    
        3587.       3587.       3587.       3587.       3587.       3587.       3587.       3587.       3587.       3589.    
        3589.       3589.       3591.       3591.       3591.       3592.       3592.       3592.       3595.       3595.    
        3595.       3599.       3599.       3599.       3598.       3598.       3598.       3596.       3596.       3596.    
        3597.       3597.       3597.       3598.       3598.       3598.       3598.       3596.       3595.       3596.    
        3596.       3596.       3598.       3598.       3599.       3600.       3600.       3601.       3602.       3604.    
        3607.       3609.       3609.       3611.       3613.       3614.    
   5    3480.       3477.       3483.       3482.       3482.       3480.       3480.       3480.       3480.       3480.    
        3480.       3482.       3484.       3488.       3495.       3495.       3496.       3496.       3496.       3497.    
        3497.       3497.       3497.       3501.       3501.       3501.       3506.       3506.       3506.       3507.    
        3507.       3507.       3509.       3509.       3509.       3517.       3517.       3517.       3524.       3524.    
        3524.       3530.       3530.       3530.       3531.       3531.       3531.       3531.       3531.       3531.    
        3531.       3531.       3531.       3531.       3531.       3531.       3531.       3531.       3531.       3531.    
        3531.       3531.       3532.       3532.       3532.       3533.       3533.       3533.       3535.       3535.    
        3535.       3535.       3535.       3535.       3535.       3534.       3534.       3534.       3535.       3535.    
        3535.       3537.       3537.       3537.       3536.       3536.       3536.       3535.       3535.       3535.    
        3534.       3534.       3534.       3538.       3538.       3538.       3543.       3543.       3543.       3543.    
        3543.       3543.       3541.       3541.       3541.       3542.       3542.       3542.       3546.       3546.    
        3546.       3551.       3551.       3551.       3557.       3557.       3557.       3567.       3567.       3567.    
        3576.       3576.       3576.       3582.       3582.       3582.       3585.       3585.       3585.       3587.    
        3587.       3587.       3587.       3587.       3587.       3587.       3587.       3587.       3587.       3589.    
        3589.       3589.       3591.       3591.       3591.       3592.       3592.       3592.       3595.       3595.    
        3595.       3599.       3599.       3599.       3598.       3598.       3598.       3596.       3596.       3596.    
        3597.       3597.       3597.       3598.       3598.       3598.       3598.       3596.       3595.       3596.    
        3596.       3596.       3598.       3598.       3599.       3600.       3600.       3601.       3602.       3604.    
        3607.       3609.       3609.       3611.       3613.       3614.    
   6    3483.       3481.       3482.       3483.       3483.       3481.       3481.       3484.       3475.       3475.    
        3479.       3483.       3486.       3489.       3493.       3493.       3497.       3497.       3497.       3498.    
        3498.       3498.       3498.       3503.       3503.       3503.       3507.       3507.       3507.       3506.    
        3506.       3506.       3505.       3505.       3505.       3509.       3509.       3509.       3517.       3517.    
        3517.       3526.       3526.       3526.       3530.       3530.       3530.       3531.       3531.       3531.    
        3530.       3530.       3530.       3530.       3530.       3530.       3532.       3532.       3532.       3532.    
        3532.       3532.       3531.       3531.       3531.       3534.       3534.       3534.       3535.       3535.    
        3535.       3534.       3534.       3534.       3534.       3534.       3534.       3534.       3536.       3536.    
        3536.       3537.       3537.       3537.       3533.       3533.       3533.       3532.       3532.       3532.    
        3534.       3534.       3534.       3539.       3539.       3539.       3543.       3543.       3543.       3545.    
        3545.       3545.       3545.       3545.       3545.       3543.       3543.       3543.       3545.       3545.    
        3545.       3548.       3548.       3548.       3548.       3548.       3548.       3551.       3551.       3551.    
        3556.       3556.       3556.       3561.       3561.       3561.       3568.       3568.       3568.       3575.    
        3575.       3575.       3575.       3580.       3580.       3580.       3584.       3584.       3584.       3589.    
        3589.       3589.       3592.       3592.       3592.       3592.       3592.       3592.       3594.       3594.    
        3594.       3601.       3601.       3601.       3599.       3599.       3599.       3598.       3598.       3598.    
        3596.       3596.       3596.       3597.       3597.       3597.       3597.       3596.       3591.       3589.    
        3589.       3589.       3589.       3590.       3593.       3594.       3594.       3593.       3590.       3589.    
        3591.       3592.       3592.       3594.       3600.       3604.    
   7    3481.       3480.       3478.       3483.       3483.       3481.       3483.       3482.       3483.       3483.    
        3482.       3485.       3485.       3490.       3496.       3496.       3498.       3498.       3498.       3499.    
        3499.       3499.       3499.       3502.       3502.       3502.       3507.       3507.       3507.       3505.    
        3505.       3505.       3503.       3503.       3503.       3505.       3505.       3505.       3510.       3510.    
        3510.       3517.       3517.       3517.       3524.       3524.       3524.       3529.       3529.       3529.    
        3531.       3531.       3531.       3533.       3533.       3533.       3535.       3535.       3535.       3534.    
        3534.       3534.       3533.       3533.       3533.       3532.       3532.       3532.       3534.       3534.    
        3534.       3534.       3534.       3534.       3534.       3535.       3535.       3535.       3535.       3535.    
        3535.       3535.       3535.       3535.       3532.       3532.       3532.       3532.       3532.       3532.    
        3536.       3536.       3536.       3539.       3539.       3539.       3541.       3541.       3541.       3543.    
        3543.       3543.       3547.       3547.       3547.       3545.       3545.       3545.       3544.       3544.    
        3544.       3547.       3547.       3547.       3549.       3549.       3549.       3551.       3551.       3551.    
        3553.       3553.       3553.       3554.       3554.       3554.       3557.       3557.       3557.       3560.    
        3560.       3560.       3560.       3563.       3563.       3563.       3568.       3568.       3568.       3573.    
        3573.       3573.       3581.       3581.       3581.       3587.       3587.       3587.       3592.       3592.    
        3592.       3595.       3595.       3595.       3592.       3592.       3592.       3585.       3585.       3585.    
        3580.       3580.       3580.       3575.       3575.       3571.       3571.       3569.       3564.       3563.    
        3560.       3560.       3560.       3559.       3561.       3564.       3564.       3566.       3567.       3572.    
        3577.       3578.       3578.       3579.       3581.       3583.    
   8    3483.       3481.       3485.       3485.       3485.       3478.       3478.       3483.       3484.       3484.    
        3484.       3488.       3489.       3494.       3498.       3498.       3501.       3501.       3501.       3501.    
        3501.       3501.       3501.       3501.       3501.       3501.       3502.       3502.       3502.       3506.    
        3506.       3506.       3503.       3503.       3503.       3502.       3502.       3502.       3504.       3504.    
        3504.       3510.       3510.       3510.       3515.       3515.       3515.       3523.       3523.       3523.    
        3529.       3529.       3529.       3536.       3536.       3536.       3539.       3539.       3539.       3537.    
        3537.       3537.       3535.       3535.       3535.       3534.       3534.       3534.       3534.       3534.    
        3534.       3535.       3535.       3535.       3535.       3538.       3538.       3538.       3537.       3537.    
        3537.       3534.       3534.       3534.       3533.       3533.       3533.       3533.       3533.       3533.    
        3536.       3536.       3536.       3539.       3539.       3539.       3537.       3537.       3537.       3539.    
        3539.       3539.       3543.       3543.       3543.       3546.       3546.       3546.       3545.       3545.    
        3545.       3543.       3543.       3543.       3542.       3542.       3542.       3545.       3545.       3545.    
        3548.       3548.       3548.       3552.       3552.       3552.       3555.       3555.       3555.       3557.    
        3557.       3557.       3557.       3558.       3558.       3558.       3558.       3558.       3558.       3559.    
        3559.       3559.       3563.       3563.       3563.       3570.       3570.       3570.       3575.       3575.    
        3575.       3575.       3575.       3575.       3566.       3566.       3566.       3560.       3560.       3560.    
        3555.       3555.       3555.       3550.       3550.       3549.       3549.       3549.       3550.       3551.    
        3549.       3549.       3547.       3548.       3551.       3553.       3553.       3553.       3554.       3555.    
        3558.       3563.       3563.       3566.       3567.       3567.    
   9    3483.       3484.       3487.       3484.       3484.       3485.       3478.       3482.       3482.       3482.    
        3483.       3488.       3488.       3492.       3495.       3495.       3498.       3498.       3498.       3500.    
        3500.       3500.       3500.       3500.       3500.       3500.       3500.       3500.       3500.       3502.    
        3502.       3502.       3503.       3503.       3503.       3502.       3502.       3502.       3501.       3501.    
        3501.       3504.       3504.       3504.       3507.       3507.       3507.       3512.       3512.       3512.    
        3522.       3522.       3522.       3531.       3531.       3531.       3536.       3536.       3536.       3538.    
        3538.       3538.       3539.       3539.       3539.       3540.       3540.       3540.       3540.       3540.    
        3540.       3539.       3539.       3539.       3539.       3540.       3540.       3540.       3540.       3540.    
        3540.       3539.       3539.       3539.       3537.       3537.       3537.       3537.       3537.       3537.    
        3537.       3537.       3537.       3537.       3537.       3537.       3537.       3537.       3537.       3540.    
        3540.       3540.       3544.       3544.       3544.       3549.       3549.       3549.       3549.       3549.    
        3549.       3547.       3547.       3547.       3544.       3544.       3544.       3542.       3542.       3542.    
        3541.       3541.       3541.       3544.       3544.       3544.       3548.       3548.       3548.       3551.    
        3551.       3551.       3551.       3554.       3554.       3554.       3556.       3556.       3556.       3557.    
        3557.       3557.       3560.       3560.       3560.       3561.       3561.       3561.       3556.       3556.    
        3556.       3551.       3551.       3551.       3551.       3551.       3551.       3552.       3552.       3552.    
        3548.       3548.       3548.       3545.       3545.       3546.       3546.       3547.       3547.       3546.    
        3541.       3541.       3539.       3542.       3547.       3548.       3548.       3547.       3546.       3544.    
        3546.       3551.       3551.       3553.       3551.       3550.    
  10    3487.       3487.       3487.       3489.       3489.       3487.       3481.       3478.       3482.       3482.    
        3484.       3486.       3487.       3488.       3492.       3492.       3496.       3496.       3496.       3501.    
        3501.       3501.       3501.       3501.       3501.       3501.       3503.       3503.       3503.       3505.    
        3505.       3505.       3505.       3505.       3505.       3506.       3506.       3506.       3505.       3505.    
        3505.       3504.       3504.       3504.       3504.       3504.       3504.       3507.       3507.       3507.    
        3512.       3512.       3512.       3520.       3520.       3520.       3530.       3530.       3530.       3534.    
        3534.       3534.       3535.       3535.       3535.       3536.       3536.       3536.       3538.       3538.    
        3538.       3541.       3541.       3541.       3541.       3542.       3542.       3542.       3540.       3540.    
        3540.       3541.       3541.       3541.       3541.       3541.       3541.       3541.       3541.       3541.    
        3542.       3542.       3542.       3542.       3542.       3542.       3540.       3540.       3540.       3540.    
        3540.       3540.       3546.       3546.       3546.       3548.       3548.       3548.       3549.       3549.    
        3549.       3550.       3550.       3550.       3549.       3549.       3549.       3548.       3548.       3548.    
        3546.       3546.       3546.       3544.       3544.       3544.       3542.       3542.       3542.       3543.    
        3543.       3543.       3543.       3546.       3546.       3546.       3549.       3549.       3549.       3551.    
        3551.       3551.       3551.       3551.       3551.       3544.       3544.       3544.       3535.       3535.    
        3535.       3533.       3533.       3533.       3537.       3537.       3537.       3541.       3541.       3541.    
        3540.       3540.       3540.       3538.       3538.       3538.       3538.       3539.       3539.       3539.    
        3536.       3536.       3536.       3537.       3540.       3543.       3543.       3544.       3543.       3541.    
        3542.       3543.       3543.       3544.       3545.       3545.    
  11    3487.       3487.       3487.       3489.       3489.       3487.       3481.       3478.       3482.       3482.    
        3484.       3486.       3487.       3488.       3492.       3492.       3496.       3496.       3496.       3501.    
        3501.       3501.       3501.       3501.       3501.       3501.       3503.       3503.       3503.       3505.    
        3505.       3505.       3505.       3505.       3505.       3506.       3506.       3506.       3505.       3505.    
        3505.       3504.       3504.       3504.       3504.       3504.       3504.       3507.       3507.       3507.    
        3512.       3512.       3512.       3520.       3520.       3520.       3530.       3530.       3530.       3534.    
        3534.       3534.       3535.       3535.       3535.       3536.       3536.       3536.       3538.       3538.    
        3538.       3541.       3541.       3541.       3541.       3542.       3542.       3542.       3540.       3540.    
        3540.       3541.       3541.       3541.       3541.       3541.       3541.       3541.       3541.       3541.    
        3542.       3542.       3542.       3542.       3542.       3542.       3540.       3540.       3540.       3540.    
        3540.       3540.       3546.       3546.       3546.       3548.       3548.       3548.       3549.       3549.    
        3549.       3550.       3550.       3550.       3549.       3549.       3549.       3548.       3548.       3548.    
        3546.       3546.       3546.       3544.       3544.       3544.       3542.       3542.       3542.       3543.    
        3543.       3543.       3543.       3546.       3546.       3546.       3549.       3549.       3549.       3551.    
        3551.       3551.       3551.       3551.       3551.       3544.       3544.       3544.       3535.       3535.    
        3535.       3533.       3533.       3533.       3537.       3537.       3537.       3541.       3541.       3541.    
        3540.       3540.       3540.       3538.       3538.       3538.       3538.       3539.       3539.       3539.    
        3536.       3536.       3536.       3537.       3540.       3543.       3543.       3544.       3543.       3541.    
        3542.       3543.       3543.       3544.       3545.       3545.    
  12    3488.       3488.       3488.       3491.       3491.       3485.       3481.       3480.       3483.       3483.    
        3482.       3483.       3483.       3485.       3489.       3489.       3493.       3493.       3493.       3499.    
        3499.       3499.       3499.       3504.       3504.       3504.       3504.       3504.       3504.       3507.    
        3507.       3507.       3507.       3507.       3507.       3505.       3505.       3505.       3507.       3507.    
        3507.       3507.       3507.       3507.       3505.       3505.       3505.       3506.       3506.       3506.    
        3508.       3508.       3508.       3512.       3512.       3512.       3517.       3517.       3517.       3524.    
        3524.       3524.       3530.       3530.       3530.       3533.       3533.       3533.       3535.       3535.    
        3535.       3537.       3537.       3537.       3537.       3538.       3538.       3538.       3539.       3539.    
        3539.       3538.       3538.       3538.       3540.       3540.       3540.       3539.       3539.       3539.    
        3540.       3540.       3540.       3541.       3541.       3541.       3542.       3542.       3542.       3542.    
        3542.       3542.       3546.       3546.       3546.       3543.       3543.       3543.       3545.       3545.    
        3545.       3546.       3546.       3546.       3546.       3546.       3546.       3545.       3545.       3545.    
        3544.       3544.       3544.       3543.       3543.       3543.       3542.       3542.       3542.       3544.    
        3544.       3544.       3544.       3540.       3540.       3540.       3538.       3538.       3538.       3535.    
        3535.       3535.       3532.       3532.       3532.       3527.       3527.       3527.       3524.       3524.    
        3524.       3525.       3525.       3525.       3524.       3524.       3524.       3525.       3525.       3525.    
        3527.       3527.       3527.       3530.       3530.       3533.       3533.       3534.       3534.       3533.    
        3531.       3531.       3531.       3531.       3533.       3537.       3537.       3537.       3538.       3539.    
        3540.       3540.       3540.       3542.       3544.       3546.    
  13    3487.       3484.       3481.       3483.       3483.       3484.       3482.       3482.       3482.       3482.    
        3479.       3478.       3479.       3482.       3486.       3486.       3490.       3490.       3490.       3495.    
        3495.       3495.       3495.       3500.       3500.       3500.       3503.       3503.       3503.       3506.    
        3506.       3506.       3506.       3506.       3506.       3503.       3503.       3503.       3502.       3502.    
        3502.       3503.       3503.       3503.       3502.       3502.       3502.       3503.       3503.       3503.    
        3504.       3504.       3504.       3506.       3506.       3506.       3507.       3507.       3507.       3510.    
        3510.       3510.       3515.       3515.       3515.       3521.       3521.       3521.       3526.       3526.    
        3526.       3529.       3529.       3529.       3529.       3531.       3531.       3531.       3532.       3532.    
        3532.       3533.       3533.       3533.       3534.       3534.       3534.       3536.       3536.       3536.    
        3537.       3537.       3537.       3537.       3537.       3537.       3537.       3537.       3537.       3538.    
        3538.       3538.       3540.       3540.       3540.       3543.       3543.       3543.       3537.       3537.    
        3537.       3537.       3537.       3537.       3538.       3538.       3538.       3539.       3539.       3539.    
        3541.       3541.       3541.       3541.       3541.       3541.       3540.       3540.       3540.       3540.    
        3540.       3540.       3540.       3534.       3534.       3534.       3528.       3528.       3528.       3525.    
        3525.       3525.       3523.       3523.       3523.       3522.       3522.       3522.       3520.       3520.    
        3520.       3520.       3520.       3520.       3519.       3519.       3519.       3518.       3518.       3518.    
        3519.       3519.       3519.       3522.       3522.       3524.       3524.       3526.       3528.       3527.    
        3529.       3529.       3530.       3533.       3534.       3537.       3537.       3538.       3537.       3538.    
        3541.       3542.       3542.       3542.       3544.       3547.    
  14    3491.       3487.       3483.       3482.       3482.       3482.       3486.       3484.       3481.       3481.    
        3479.       3482.       3483.       3483.       3482.       3482.       3486.       3486.       3486.       3493.    
        3493.       3493.       3493.       3499.       3499.       3499.       3503.       3503.       3503.       3502.    
        3502.       3502.       3503.       3503.       3503.       3500.       3500.       3500.       3499.       3499.    
        3499.       3499.       3499.       3499.       3500.       3500.       3500.       3501.       3501.       3501.    
        3503.       3503.       3503.       3502.       3502.       3502.       3500.       3500.       3500.       3502.    
        3502.       3502.       3506.       3506.       3506.       3511.       3511.       3511.       3515.       3515.    
        3515.       3517.       3517.       3517.       3517.       3519.       3519.       3519.       3521.       3521.    
        3521.       3523.       3523.       3523.       3527.       3527.       3527.       3529.       3529.       3529.    
        3530.       3530.       3530.       3530.       3530.       3530.       3530.       3530.       3530.       3531.    
        3531.       3531.       3532.       3532.       3532.       3534.       3534.       3534.       3537.       3537.    
        3537.       3529.       3529.       3529.       3528.       3528.       3528.       3528.       3528.       3528.    
        3527.       3527.       3527.       3527.       3527.       3527.       3527.       3527.       3527.       3526.    
        3526.       3526.       3526.       3525.       3525.       3525.       3522.       3522.       3522.       3519.    
        3519.       3519.       3519.       3519.       3519.       3519.       3519.       3519.       3521.       3521.    
        3521.       3523.       3523.       3523.       3524.       3524.       3524.       3523.       3523.       3523.    
        3524.       3524.       3524.       3525.       3525.       3527.       3527.       3529.       3528.       3527.    
        3531.       3531.       3535.       3536.       3538.       3540.       3540.       3540.       3539.       3539.    
        3540.       3540.       3540.       3540.       3543.       3546.    
  15    3495.       3490.       3485.       3483.       3483.       3483.       3488.       3488.       3484.       3484.    
        3481.       3483.       3485.       3487.       3485.       3485.       3485.       3485.       3485.       3488.    
        3488.       3488.       3488.       3494.       3494.       3494.       3499.       3499.       3499.       3503.    
        3503.       3503.       3505.       3505.       3505.       3504.       3504.       3504.       3506.       3506.    
        3506.       3507.       3507.       3507.       3507.       3507.       3507.       3509.       3509.       3509.    
        3508.       3508.       3508.       3509.       3509.       3509.       3507.       3507.       3507.       3506.    
        3506.       3506.       3505.       3505.       3505.       3505.       3505.       3505.       3506.       3506.    
        3506.       3508.       3508.       3508.       3508.       3510.       3510.       3510.       3513.       3513.    
        3513.       3515.       3515.       3515.       3516.       3516.       3516.       3518.       3518.       3518.    
        3520.       3520.       3520.       3521.       3521.       3521.       3522.       3522.       3522.       3522.    
        3522.       3522.       3523.       3523.       3523.       3526.       3526.       3526.       3528.       3528.    
        3528.       3521.       3521.       3521.       3523.       3523.       3523.       3526.       3526.       3526.    
        3526.       3526.       3526.       3525.       3525.       3525.       3522.       3522.       3522.       3516.    
        3516.       3516.       3516.       3516.       3516.       3516.       3518.       3518.       3518.       3519.    
        3519.       3519.       3519.       3519.       3519.       3519.       3519.       3519.       3522.       3522.    
        3522.       3525.       3525.       3525.       3526.       3526.       3526.       3527.       3527.       3527.    
        3530.       3530.       3530.       3534.       3534.       3535.       3535.       3533.       3530.       3530.    
        3533.       3533.       3537.       3538.       3539.       3540.       3540.       3542.       3542.       3542.    
        3542.       3541.       3541.       3543.       3545.       3547.    
  16    3499.       3495.       3491.       3485.       3485.       3478.       3480.       3486.       3488.       3488.    
        3482.       3481.       3483.       3486.       3488.       3488.       3488.       3488.       3488.       3488.    
        3488.       3488.       3488.       3489.       3489.       3489.       3489.       3489.       3489.       3493.    
        3493.       3493.       3496.       3496.       3496.       3500.       3500.       3500.       3502.       3502.    
        3502.       3501.       3501.       3501.       3506.       3506.       3506.       3508.       3508.       3508.    
        3508.       3508.       3508.       3508.       3508.       3508.       3509.       3509.       3509.       3512.    
        3512.       3512.       3512.       3512.       3512.       3513.       3513.       3513.       3512.       3512.    
        3512.       3509.       3509.       3509.       3509.       3509.       3509.       3509.       3511.       3511.    
        3511.       3512.       3512.       3512.       3512.       3512.       3512.       3511.       3511.       3511.    
        3513.       3513.       3513.       3514.       3514.       3514.       3516.       3516.       3516.       3517.    
        3517.       3517.       3519.       3519.       3519.       3520.       3520.       3520.       3521.       3521.    
        3521.       3521.       3521.       3521.       3516.       3516.       3516.       3518.       3518.       3518.    
        3520.       3520.       3520.       3519.       3519.       3519.       3517.       3517.       3517.       3514.    
        3514.       3514.       3514.       3514.       3514.       3514.       3515.       3515.       3515.       3517.    
        3517.       3517.       3519.       3519.       3519.       3519.       3519.       3519.       3522.       3522.    
        3522.       3524.       3524.       3524.       3526.       3526.       3526.       3527.       3527.       3527.    
        3529.       3529.       3529.       3531.       3531.       3532.       3532.       3531.       3531.       3532.    
        3534.       3534.       3536.       3536.       3537.       3541.       3541.       3543.       3544.       3543.    
        3540.       3540.       3540.       3542.       3546.       3547.    
  17    3499.       3495.       3491.       3485.       3485.       3478.       3480.       3486.       3488.       3488.    
        3482.       3481.       3483.       3486.       3488.       3488.       3488.       3488.       3488.       3488.    
        3488.       3488.       3488.       3489.       3489.       3489.       3489.       3489.       3489.       3493.    
        3493.       3493.       3496.       3496.       3496.       3500.       3500.       3500.       3502.       3502.    
        3502.       3501.       3501.       3501.       3506.       3506.       3506.       3508.       3508.       3508.    
        3508.       3508.       3508.       3508.       3508.       3508.       3509.       3509.       3509.       3512.    
        3512.       3512.       3512.       3512.       3512.       3513.       3513.       3513.       3512.       3512.    
        3512.       3509.       3509.       3509.       3509.       3509.       3509.       3509.       3511.       3511.    
        3511.       3512.       3512.       3512.       3512.       3512.       3512.       3511.       3511.       3511.    
        3513.       3513.       3513.       3514.       3514.       3514.       3516.       3516.       3516.       3517.    
        3517.       3517.       3519.       3519.       3519.       3520.       3520.       3520.       3521.       3521.    
        3521.       3521.       3521.       3521.       3516.       3516.       3516.       3518.       3518.       3518.    
        3520.       3520.       3520.       3519.       3519.       3519.       3517.       3517.       3517.       3514.    
        3514.       3514.       3514.       3514.       3514.       3514.       3515.       3515.       3515.       3517.    
        3517.       3517.       3519.       3519.       3519.       3519.       3519.       3519.       3522.       3522.    
        3522.       3524.       3524.       3524.       3526.       3526.       3526.       3527.       3527.       3527.    
        3529.       3529.       3529.       3531.       3531.       3532.       3532.       3531.       3531.       3532.    
        3534.       3534.       3536.       3536.       3537.       3541.       3541.       3543.       3544.       3543.    
        3540.       3540.       3540.       3542.       3546.       3547.    
  18    3499.       3496.       3497.       3486.       3486.       3487.       3485.       3486.       3488.       3488.    
        3483.       3483.       3486.       3490.       3492.       3492.       3493.       3493.       3493.       3493.    
        3493.       3493.       3493.       3491.       3491.       3491.       3489.       3489.       3489.       3487.    
        3487.       3487.       3489.       3489.       3489.       3493.       3493.       3493.       3496.       3496.    
        3496.       3497.       3497.       3497.       3498.       3498.       3498.       3498.       3498.       3498.    
        3502.       3502.       3502.       3506.       3506.       3506.       3511.       3511.       3511.       3509.    
        3509.       3509.       3509.       3509.       3509.       3511.       3511.       3511.       3512.       3512.    
        3512.       3511.       3511.       3511.       3511.       3510.       3510.       3510.       3514.       3514.    
        3514.       3515.       3515.       3515.       3514.       3514.       3514.       3511.       3511.       3511.    
        3510.       3510.       3510.       3512.       3512.       3512.       3513.       3513.       3513.       3513.    
        3513.       3513.       3514.       3514.       3514.       3517.       3517.       3517.       3518.       3518.    
        3518.       3518.       3518.       3518.       3516.       3516.       3516.       3508.       3508.       3508.    
        3510.       3510.       3510.       3514.       3514.       3514.       3515.       3515.       3515.       3515.    
        3515.       3515.       3515.       3516.       3516.       3516.       3518.       3518.       3518.       3523.    
        3523.       3523.       3526.       3526.       3526.       3526.       3526.       3526.       3525.       3525.    
        3525.       3526.       3526.       3526.       3528.       3528.       3528.       3530.       3530.       3530.    
        3533.       3533.       3533.       3536.       3536.       3538.       3538.       3536.       3535.       3534.    
        3535.       3535.       3537.       3536.       3535.       3537.       3537.       3541.       3543.       3542.    
        3540.       3539.       3539.       3540.       3544.       3547.    
  19    3503.       3501.       3499.       3490.       3490.       3493.       3497.       3491.       3491.       3491.    
        3484.       3485.       3487.       3490.       3493.       3493.       3495.       3495.       3495.       3496.    
        3496.       3496.       3496.       3495.       3495.       3495.       3494.       3494.       3494.       3491.    
        3491.       3491.       3490.       3490.       3490.       3492.       3492.       3492.       3494.       3494.    
        3494.       3495.       3495.       3495.       3493.       3493.       3493.       3492.       3492.       3492.    
        3494.       3494.       3494.       3500.       3500.       3500.       3504.       3504.       3504.       3504.    
        3504.       3504.       3505.       3505.       3505.       3507.       3507.       3507.       3509.       3509.    
        3509.       3508.       3508.       3508.       3508.       3508.       3508.       3508.       3509.       3509.    
        3509.       3513.       3513.       3513.       3511.       3511.       3511.       3510.       3510.       3510.    
        3510.       3510.       3510.       3511.       3511.       3511.       3512.       3512.       3512.       3513.    
        3513.       3513.       3515.       3515.       3515.       3516.       3516.       3516.       3518.       3518.    
        3518.       3515.       3515.       3515.       3510.       3510.       3510.       3508.       3508.       3508.    
        3505.       3505.       3505.       3511.       3511.       3511.       3514.       3514.       3514.       3516.    
        3516.       3516.       3516.       3519.       3519.       3519.       3520.       3520.       3520.       3521.    
        3521.       3521.       3525.       3525.       3525.       3527.       3527.       3527.       3528.       3528.    
        3528.       3528.       3528.       3528.       3529.       3529.       3529.       3530.       3530.       3530.    
        3533.       3533.       3533.       3537.       3537.       3540.       3540.       3540.       3538.       3536.    
        3535.       3535.       3535.       3535.       3535.       3537.       3537.       3538.       3541.       3543.    
        3541.       3542.       3542.       3547.       3550.       3552.    
  20    3504.       3502.       3497.       3491.       3491.       3495.       3498.       3493.       3493.       3493.    
        3489.       3486.       3484.       3486.       3490.       3490.       3493.       3493.       3493.       3491.    
        3491.       3491.       3491.       3491.       3491.       3491.       3493.       3493.       3493.       3493.    
        3493.       3493.       3492.       3492.       3492.       3493.       3493.       3493.       3493.       3493.    
        3493.       3493.       3493.       3493.       3494.       3494.       3494.       3493.       3493.       3493.    
        3492.       3492.       3492.       3495.       3495.       3495.       3497.       3497.       3497.       3497.    
        3497.       3497.       3498.       3498.       3498.       3500.       3500.       3500.       3503.       3503.    
        3503.       3503.       3503.       3503.       3503.       3504.       3504.       3504.       3506.       3506.    
        3506.       3510.       3510.       3510.       3510.       3510.       3510.       3508.       3508.       3508.    
        3509.       3509.       3509.       3510.       3510.       3510.       3510.       3510.       3510.       3511.    
        3511.       3511.       3515.       3515.       3515.       3517.       3517.       3517.       3519.       3519.    
        3519.       3514.       3514.       3514.       3508.       3508.       3508.       3504.       3504.       3504.    
        3505.       3505.       3505.       3514.       3514.       3514.       3516.       3516.       3516.       3518.    
        3518.       3518.       3518.       3521.       3521.       3521.       3521.       3521.       3521.       3521.    
        3521.       3521.       3524.       3524.       3524.       3527.       3527.       3527.       3530.       3530.    
        3530.       3530.       3530.       3530.       3529.       3529.       3529.       3531.       3531.       3531.    
        3533.       3533.       3533.       3537.       3537.       3540.       3540.       3541.       3537.       3536.    
        3535.       3535.       3536.       3534.       3536.       3538.       3538.       3541.       3545.       3545.    
        3546.       3549.       3549.       3552.       3551.       3552.    
  21    3505.       3505.       3500.       3491.       3491.       3494.       3493.       3492.       3492.       3492.    
        3491.       3486.       3482.       3484.       3485.       3485.       3487.       3487.       3487.       3488.    
        3488.       3488.       3488.       3488.       3488.       3488.       3490.       3490.       3490.       3493.    
        3493.       3493.       3493.       3493.       3493.       3491.       3491.       3491.       3491.       3491.    
        3491.       3492.       3492.       3492.       3494.       3494.       3494.       3497.       3497.       3497.    
        3495.       3495.       3495.       3495.       3495.       3495.       3495.       3495.       3495.       3495.    
        3495.       3495.       3494.       3494.       3494.       3495.       3495.       3495.       3496.       3496.    
        3496.       3497.       3497.       3497.       3497.       3499.       3499.       3499.       3502.       3502.    
        3502.       3506.       3506.       3506.       3509.       3509.       3509.       3509.       3509.       3509.    
        3510.       3510.       3510.       3510.       3510.       3510.       3508.       3508.       3508.       3510.    
        3510.       3510.       3514.       3514.       3514.       3515.       3515.       3515.       3515.       3515.    
        3515.       3512.       3512.       3512.       3509.       3509.       3509.       3506.       3506.       3506.    
        3507.       3507.       3507.       3514.       3514.       3514.       3518.       3518.       3518.       3520.    
        3520.       3520.       3520.       3523.       3523.       3523.       3525.       3525.       3525.       3526.    
        3526.       3526.       3526.       3526.       3526.       3528.       3528.       3528.       3530.       3530.    
        3530.       3531.       3531.       3531.       3532.       3532.       3532.       3534.       3534.       3534.    
        3535.       3535.       3535.       3534.       3534.       3534.       3534.       3537.       3536.       3536.    
        3537.       3537.       3535.       3533.       3536.       3541.       3541.       3544.       3545.       3545.    
        3547.       3548.       3548.       3549.       3549.       3550.    
  22    3505.       3505.       3500.       3491.       3491.       3494.       3493.       3492.       3492.       3492.    
        3491.       3486.       3482.       3484.       3485.       3485.       3487.       3487.       3487.       3488.    
        3488.       3488.       3488.       3488.       3488.       3488.       3490.       3490.       3490.       3493.    
        3493.       3493.       3493.       3493.       3493.       3491.       3491.       3491.       3491.       3491.    
        3491.       3492.       3492.       3492.       3494.       3494.       3494.       3497.       3497.       3497.    
        3495.       3495.       3495.       3495.       3495.       3495.       3495.       3495.       3495.       3495.    
        3495.       3495.       3494.       3494.       3494.       3495.       3495.       3495.       3496.       3496.    
        3496.       3497.       3497.       3497.       3497.       3499.       3499.       3499.       3502.       3502.    
        3502.       3506.       3506.       3506.       3509.       3509.       3509.       3509.       3509.       3509.    
        3510.       3510.       3510.       3510.       3510.       3510.       3508.       3508.       3506.       3510.    
        3510.       3510.       3514.       3514.       3514.       3515.       3515.       3515.       3515.       3515.    
        3515.       3512.       3512.       3512.       3509.       3509.       3509.       3506.       3506.       3506.    
        3507.       3507.       3507.       3514.       3514.       3514.       3518.       3518.       3518.       3520.    
        3520.       3520.       3520.       3523.       3523.       3523.       3525.       3525.       3525.       3526.    
        3526.       3526.       3526.       3526.       3526.       3528.       3528.       3528.       3530.       3530.    
        3530.       3531.       3531.       3531.       3532.       3532.       3532.       3531.       3534.       3534.    
        3535.       3535.       3535.       3534.       3534.       3534.       3534.       3537.       3536.       3536.    
        3537.       3537.       3535.       3533.       3536.       3541.       3541.       3544.       3545.       3545.    
        3547.       3548.       3548.       3549.       3549.       3550.    
  23    3506.       3502.       3493.       3490.       3490.       3489.       3491.       3493.       3491.       3491.    
        3490.       3486.       3485.       3486.       3485.       3485.       3487.       3487.       3487.       3488.    
        3488.       3488.       3488.       3489.       3489.       3489.       3491.       3491.       3491.       3492.    
        3492.       3492.       3494.       3494.       3494.       3494.       3494.       3494.       3493.       3493.    
        3493.       3493.       3493.       3493.       3495.       3495.       3495.       3496.       3496.       3496.    
        3495.       3495.       3495.       3496.       3496.       3496.       3497.       3497.       3497.       3498.    
        3498.       3498.       3497.       3497.       3497.       3496.       3496.       3496.       3496.       3496.    
        3496.       3495.       3495.       3495.       3495.       3498.       3498.       3498.       3499.       3499.    
        3499.       3502.       3502.       3502.       3504.       3504.       3504.       3503.       3503.       3503.    
        3505.       3505.       3505.       3506.       3506.       3506.       3506.       3506.       3506.       3506.    
        3506.       3506.       3506.       3506.       3506.       3507.       3507.       3507.       3508.       3508.    
        3508.       3508.       3508.       3508.       3509.       3509.       3509.       3511.       3511.       3511.    
        3514.       3514.       3514.       3517.       3517.       3517.       3518.       3518.       3518.       3520.    
        3520.       3520.       3520.       3522.       3522.       3522.       3523.       3523.       3523.       3524.    
        3524.       3524.       3524.       3524.       3524.       3524.       3524.       3524.       3526.       3526.    
        3526.       3526.       3526.       3526.       3528.       3528.       3528.       3531.       3531.       3531.    
        3533.       3533.       3533.       3533.       3533.       3534.       3534.       3535.       3535.       3537.    
        3539.       3539.       3538.       3537.       3537.       3541.       3541.       3543.       3545.       3545.    
        3546.       3546.       3546.       3546.       3547.       3549.    
  24    3504.       3501.       3493.       3490.       3490.       3488.       3488.       3492.       3490.       3490.    
        3488.       3487.       3490.       3489.       3490.       3490.       3491.       3491.       3491.       3492.    
        3492.       3492.       3492.       3493.       3493.       3493.       3494.       3494.       3494.       3496.    
        3496.       3496.       3498.       3498.       3498.       3499.       3499.       3499.       3498.       3498.    
        3498.       3497.       3497.       3497.       3497.       3497.       3497.       3497.       3497.       3497.    
        3497.       3497.       3497.       3498.       3498.       3498.       3499.       3499.       3499.       3501.    
        3501.       3501.       3501.       3501.       3501.       3502.       3502.       3502.       3502.       3502.    
        3502.       3501.       3501.       3501.       3501.       3501.       3501.       3501.       3503.       3503.    
        3503.       3503.       3503.       3503.       3502.       3502.       3502.       3503.       3503.       3503.    
        3503.       3503.       3503.       3505.       3505.       3505.       3507.       3507.       3507.       3508.    
        3508.       3508.       3508.       3508.       3508.       3508.       3508.       3508.       3510.       3510.    
        3510.       3510.       3510.       3510.       3513.       3513.       3513.       3515.       3515.       3515.    
        3517.       3517.       3517.       3517.       3517.       3517.       3519.       3519.       3519.       3519.    
        3519.       3519.       3519.       3521.       3521.       3521.       3524.       3524.       3524.       3525.    
        3525.       3525.       3527.       3527.       3527.       3529.       3529.       3529.       3531.       3531.    
        3531.       3532.       3532.       3532.       3534.       3534.       3534.       3534.       3534.       3534.    
        3533.       3533.       3533.       3532.       3532.       3533.       3533.       3535.       3538.       3539.    
        3541.       3541.       3543.       3543.       3542.       3541.       3541.       3542.       3544.       3546.    
        3544.       3544.       3544.       3546.       3547.       3549.    
  25    3500.       3498.       3491.       3486.       3486.       3488.       3487.       3494.       3491.       3491.    
        3489.       3488.       3490.       3491.       3493.       3493.       3495.       3495.       3495.       3494.    
        3494.       3494.       3494.       3495.       3495.       3495.       3497.       3497.       3497.       3499.    
        3499.       3499.       3499.       3499.       3499.       3499.       3499.       3499.       3499.       3499.    
        3499.       3498.       3498.       3498.       3497.       3497.       3497.       3497.       3497.       3497.    
        3499.       3499.       3499.       3501.       3501.       3501.       3503.       3503.       3503.       3505.    
        3505.       3505.       3506.       3506.       3506.       3506.       3506.       3506.       3507.       3507.    
        3507.       3508.       3508.       3508.       3508.       3507.       3507.       3507.       3506.       3506.    
        3506.       3504.       3504.       3504.       3505.       3505.       3505.       3507.       3507.       3507.    
        3507.       3507.       3507.       3508.       3508.       3508.       3509.       3509.       3509.       3511.    
        3511.       3511.       3514.       3514.       3514.       3515.       3515.       3515.       3517.       3517.    
        3517.       3517.       3517.       3517.       3516.       3516.       3516.       3516.       3516.       3516.    
        3516.       3516.       3516.       3516.       3516.       3516.       3518.       3518.       3518.       3519.    
        3519.       3519.       3519.       3522.       3522.       3522.       3525.       3525.       3525.       3526.    
        3526.       3526.       3529.       3529.       3529.       3531.       3531.       3531.       3535.       3535.    
        3535.       3539.       3539.       3539.       3542.       3542.       3542.       3542.       3542.       3542.    
        3537.       3537.       3537.       3534.       3534.       3535.       3535.       3537.       3539.       3539.    
        3540.       3540.       3543.       3546.       3545.       3546.       3546.       3546.       3546.       3548.    
        3550.       3550.       3550.       3549.       3549.       3551.    
  26    3498.       3493.       3489.       3488.       3488.       3489.       3490.       3493.       3492.       3492.    
        3491.       3490.       3489.       3490.       3493.       3493.       3495.       3495.       3495.       3493.    
        3493.       3493.       3493.       3493.       3493.       3493.       3496.       3496.       3496.       3499.    
        3499.       3499.       3500.       3500.       3500.       3498.       3498.       3498.       3498.       3498.    
        3498.       3497.       3497.       3497.       3497.       3497.       3497.       3498.       3498.       3498.    
        3500.       3500.       3500.       3502.       3502.       3502.       3500.       3500.       3500.       3501.    
        3501.       3501.       3503.       3503.       3503.       3504.       3504.       3504.       3505.       3505.    
        3505.       3507.       3507.       3507.       3507.       3509.       3509.       3509.       3507.       3507.    
        3507.       3507.       3507.       3507.       3508.       3508.       3508.       3508.       3508.       3508.    
        3506.       3506.       3506.       3506.       3506.       3506.       3507.       3507.       3507.       3508.    
        3508.       3508.       3511.       3511.       3511.       3513.       3513.       3513.       3515.       3515.    
        3515.       3517.       3517.       3517.       3518.       3518.       3518.       3517.       3517.       3517.    
        3517.       3517.       3517.       3516.       3516.       3516.       3518.       3518.       3518.       3521.    
        3521.       3521.       3521.       3522.       3522.       3522.       3527.       3527.       3527.       3527.    
        3527.       3527.       3529.       3529.       3529.       3531.       3531.       3531.       3533.       3533.    
        3533.       3536.       3536.       3536.       3541.       3541.       3541.       3543.       3543.       3543.    
        3543.       3543.       3543.       3541.       3541.       3540.       3540.       3541.       3541.       3539.    
        3539.       3539.       3544.       3546.       3546.       3545.       3545.       3547.       3547.       3546.    
        3548.       3550.       3550.       3551.       3551.       3552.    
  27    3498.       3493.       3489.       3488.       3488.       3489.       3490.       3493.       3492.       3492.    
        3491.       3490.       3489.       3490.       3493.       3493.       3495.       3495.       3495.       3493.    
        3493.       3493.       3493.       3493.       3493.       3493.       3496.       3496.       3496.       3499.    
        3499.       3499.       3500.       3500.       3500.       3498.       3498.       3498.       3498.       3498.    
        3498.       3497.       3497.       3497.       3497.       3497.       3497.       3498.       3498.       3498.    
        3500.       3500.       3500.       3502.       3502.       3502.       3500.       3500.       3500.       3501.    
        3501.       3501.       3503.       3503.       3503.       3504.       3504.       3504.       3505.       3505.    
        3505.       3507.       3507.       3507.       3507.       3509.       3509.       3509.       3507.       3507.    
        3507.       3507.       3507.       3507.       3508.       3508.       3508.       3508.       3508.       3508.    
        3506.       3506.       3506.       3506.       3506.       3506.       3507.       3507.       3507.       3508.    
        3508.       3508.       3511.       3511.       3511.       3513.       3513.       3513.       3515.       3515.    
        3515.       3517.       3517.       3517.       3518.       3518.       3518.       3517.       3517.       3517.    
        3517.       3517.       3517.       3516.       3516.       3516.       3518.       3518.       3518.       3521.    
        3521.       3521.       3521.       3522.       3522.       3522.       3527.       3527.       3527.       3527.    
        3527.       3527.       3529.       3529.       3529.       3531.       3531.       3531.       3533.       3533.    
        3533.       3536.       3536.       3536.       3541.       3541.       3541.       3543.       3543.       3543.    
        3543.       3543.       3543.       3541.       3541.       3540.       3540.       3541.       3541.       3539.    
        3539.       3539.       3544.       3546.       3546.       3545.       3545.       3547.       3547.       3546.    
        3548.       3550.       3550.       3551.       3551.       3552.    
  28    3495.       3492.       3491.       3489.       3489.       3491.       3491.       3490.       3490.       3490.    
        3489.       3491.       3494.       3495.       3497.       3497.       3497.       3497.       3497.       3496.    
        3496.       3496.       3496.       3495.       3495.       3495.       3498.       3498.       3498.       3500.    
        3500.       3500.       3500.       3500.       3500.       3499.       3499.       3499.       3501.       3501.    
        3501.       3500.       3500.       3500.       3498.       3498.       3498.       3500.       3500.       3500.    
        3501.       3501.       3501.       3502.       3502.       3502.       3501.       3501.       3501.       3501.    
        3501.       3501.       3503.       3503.       3503.       3505.       3505.       3505.       3505.       3505.    
        3505.       3505.       3505.       3505.       3505.       3505.       3505.       3505.       3506.       3506.    
        3506.       3507.       3507.       3507.       3509.       3509.       3509.       3510.       3510.       3510.    
        3509.       3509.       3509.       3509.       3509.       3509.       3510.       3510.       3510.       3510.    
        3510.       3510.       3511.       3511.       3511.       3513.       3513.       3513.       3513.       3513.    
        3513.       3515.       3515.       3515.       3518.       3518.       3518.       3517.       3517.       3517.    
        3516.       3516.       3516.       3516.       3516.       3516.       3520.       3520.       3520.       3523.    
        3523.       3523.       3523.       3525.       3525.       3525.       3527.       3527.       3527.       3530.    
        3530.       3530.       3531.       3531.       3531.       3531.       3531.       3531.       3532.       3532.    
        3532.       3535.       3535.       3535.       3537.       3537.       3537.       3541.       3541.       3541.    
        3543.       3543.       3543.       3542.       3542.       3539.       3539.       3541.       3543.       3543.    
        3543.       3543.       3545.       3546.       3545.       3543.       3543.       3545.       3548.       3546.    
        3546.       3545.       3545.       3547.       3548.       3549.    
  29    3495.       3492.       3491.       3489.       3489.       3491.       3491.       3490.       3490.       3490.    
        3489.       3491.       3494.       3495.       3497.       3497.       3497.       3497.       3497.       3496.    
        3496.       3496.       3496.       3495.       3495.       3495.       3498.       3498.       3498.       3500.    
        3500.       3500.       3500.       3500.       3500.       3499.       3499.       3499.       3501.       3501.    
        3501.       3500.       3500.       3500.       3498.       3498.       3498.       3500.       3500.       3500.    
        3501.       3501.       3501.       3502.       3502.       3502.       3501.       3501.       3501.       3501.    
        3501.       3501.       3503.       3503.       3503.       3505.       3505.       3505.       3505.       3505.    
        3505.       3505.       3505.       3505.       3505.       3505.       3505.       3505.       3506.       3506.    
        3506.       3507.       3507.       3507.       3509.       3509.       3509.       3510.       3510.       3510.    
        3509.       3509.       3509.       3509.       3509.       3509.       3510.       3510.       3510.       3510.    
        3510.       3510.       3511.       3511.       3511.       3513.       3513.       3513.       3513.       3513.    
        3513.       3515.       3515.       3515.       3518.       3518.       3518.       3517.       3517.       3517.    
        3516.       3516.       3516.       3516.       3516.       3516.       3520.       3520.       3520.       3523.    
        3523.       3523.       3523.       3525.       3525.       3525.       3527.       3527.       3527.       3530.    
        3530.       3530.       3531.       3531.       3531.       3531.       3531.       3531.       3532.       3532.    
        3532.       3535.       3535.       3535.       3537.       3537.       3537.       3541.       3541.       3541.    
        3543.       3543.       3543.       3542.       3542.       3539.       3539.       3541.       3543.       3543.    
        3543.       3543.       3545.       3546.       3545.       3543.       3543.       3545.       3548.       3546.    
        3546.       3545.       3545.       3547.       3548.       3549.    
  30    3495.       3492.       3491.       3489.       3489.       3491.       3491.       3490.       3490.       3490.    
        3489.       3491.       3494.       3495.       3497.       3497.       3497.       3497.       3497.       3496.    
        3496.       3496.       3496.       3495.       3495.       3495.       3498.       3498.       3498.       3500.    
        3500.       3500.       3500.       3500.       3500.       3499.       3499.       3499.       3501.       3501.    
        3501.       3500.       3500.       3500.       3498.       3498.       3498.       3500.       3500.       3500.    
        3501.       3501.       3501.       3502.       3502.       3502.       3501.       3501.       3501.       3501.    
        3501.       3501.       3503.       3503.       3503.       3505.       3505.       3505.       3505.       3505.    
        3505.       3505.       3505.       3505.       3505.       3505.       3505.       3505.       3506.       3506.    
        3506.       3507.       3507.       3507.       3509.       3509.       3509.       3510.       3510.       3510.    
        3509.       3509.       3509.       3509.       3509.       3509.       3510.       3510.       3510.       3510.    
        3510.       3510.       3511.       3511.       3511.       3513.       3513.       3513.       3513.       3513.    
        3513.       3515.       3515.       3515.       3518.       3518.       3518.       3517.       3517.       3517.    
        3516.       3516.       3516.       3516.       3516.       3516.       3520.       3520.       3520.       3523.    
        3523.       3523.       3523.       3525.       3525.       3525.       3527.       3527.       3527.       3530.    
        3530.       3530.       3531.       3531.       3531.       3531.       3531.       3531.       3532.       3532.    
        3532.       3535.       3535.       3535.       3537.       3537.       3537.       3541.       3541.       3541.    
        3543.       3543.       3543.       3542.       3542.       3539.       3539.       3541.       3543.       3543.    
        3543.       3543.       3545.       3546.       3545.       3543.       3543.       3545.       3548.       3546.    
        3546.       3545.       3545.       3547.       3548.       3549.    
  31    3497.       3495.       3494.       3492.       3492.       3492.       3491.       3491.       3488.       3488.    
        3487.       3490.       3497.       3501.       3500.       3500.       3497.       3497.       3497.       3497.    
        3497.       3497.       3497.       3498.       3498.       3498.       3503.       3503.       3503.       3503.    
        3503.       3503.       3500.       3500.       3500.       3499.       3499.       3499.       3500.       3500.    
        3500.       3499.       3499.       3499.       3499.       3499.       3499.       3502.       3502.       3502.    
        3504.       3504.       3504.       3503.       3503.       3503.       3502.       3502.       3502.       3502.    
        3502.       3502.       3503.       3503.       3503.       3505.       3505.       3505.       3506.       3506.    
        3506.       3507.       3507.       3507.       3507.       3507.       3507.       3507.       3507.       3507.    
        3507.       3508.       3508.       3508.       3510.       3510.       3510.       3511.       3511.       3511.    
        3511.       3511.       3511.       3511.       3511.       3511.       3512.       3512.       3512.       3513.    
        3513.       3513.       3512.       3512.       3512.       3511.       3511.       3511.       3513.       3513.    
        3513.       3516.       3516.       3516.       3517.       3517.       3517.       3516.       3516.       3516.    
        3517.       3517.       3517.       3520.       3520.       3520.       3522.       3522.       3522.       3522.    
        3522.       3522.       3522.       3522.       3522.       3522.       3526.       3526.       3526.       3530.    
        3530.       3530.       3530.       3530.       3530.       3529.       3529.       3529.       3530.       3530.    
        3530.       3533.       3533.       3533.       3538.       3538.       3538.       3541.       3541.       3541.    
        3541.       3541.       3541.       3539.       3539.       3539.       3539.       3540.       3543.       3545.    
        3546.       3546.       3544.       3544.       3544.       3544.       3544.       3545.       3548.       3548.    
        3547.       3549.       3549.       3550.       3550.       3549.    
  32    3497.       3495.       3494.       3492.       3492.       3492.       3491.       3491.       3488.       3488.    
        3487.       3490.       3497.       3501.       3500.       3500.       3497.       3497.       3497.       3497.    
        3497.       3497.       3497.       3498.       3498.       3498.       3503.       3503.       3503.       3503.    
        3503.       3503.       3500.       3500.       3500.       3499.       3499.       3499.       3500.       3500.    
        3500.       3499.       3499.       3499.       3499.       3499.       3499.       3502.       3502.       3502.    
        3504.       3504.       3504.       3503.       3503.       3503.       3502.       3502.       3502.       3502.    
        3502.       3502.       3503.       3503.       3503.       3505.       3505.       3505.       3506.       3506.    
        3506.       3507.       3507.       3507.       3507.       3507.       3507.       3507.       3507.       3507.    
        3507.       3508.       3508.       3508.       3510.       3510.       3510.       3511.       3511.       3511.    
        3511.       3511.       3511.       3511.       3511.       3511.       3512.       3512.       3512.       3513.    
        3513.       3513.       3512.       3512.       3512.       3511.       3511.       3511.       3513.       3513.    
        3513.       3516.       3516.       3516.       3517.       3517.       3517.       3516.       3516.       3516.    
        3517.       3517.       3517.       3520.       3520.       3520.       3522.       3522.       3522.       3522.    
        3522.       3522.       3522.       3522.       3522.       3522.       3526.       3526.       3526.       3530.    
        3530.       3530.       3530.       3530.       3530.       3529.       3529.       3529.       3530.       3530.    
        3530.       3533.       3533.       3533.       3538.       3538.       3538.       3541.       3541.       3541.    
        3541.       3541.       3541.       3539.       3539.       3539.       3539.       3540.       3543.       3545.    
        3546.       3546.       3544.       3544.       3544.       3544.       3544.       3545.       3548.       3548.    
        3547.       3549.       3549.       3550.       3550.       3549.    
  33    3497.       3495.       3494.       3492.       3492.       3492.       3491.       3491.       3488.       3488.    
        3487.       3490.       3497.       3501.       3500.       3500.       3497.       3497.       3497.       3497.    
        3497.       3497.       3497.       3498.       3498.       3498.       3503.       3503.       3503.       3503.    
        3503.       3503.       3500.       3500.       3500.       3499.       3499.       3499.       3500.       3500.    
        3500.       3499.       3499.       3499.       3499.       3499.       3499.       3502.       3502.       3502.    
        3504.       3504.       3504.       3503.       3503.       3503.       3502.       3502.       3502.       3502.    
        3502.       3502.       3503.       3503.       3503.       3505.       3505.       3505.       3506.       3506.    
        3506.       3507.       3507.       3507.       3507.       3507.       3507.       3507.       3507.       3507.    
        3507.       3508.       3508.       3508.       3510.       3510.       3510.       3511.       3511.       3511.    
        3511.       3511.       3511.       3511.       3511.       3511.       3512.       3512.       3512.       3513.    
        3513.       3513.       3512.       3512.       3512.       3511.       3511.       3511.       3513.       3513.    
        3513.       3516.       3516.       3516.       3517.       3517.       3517.       3516.       3516.       3516.    
        3517.       3517.       3517.       3520.       3520.       3520.       3522.       3522.       3522.       3522.    
        3522.       3522.       3522.       3522.       3522.       3522.       3526.       3526.       3526.       3530.    
        3530.       3530.       3530.       3530.       3530.       3529.       3529.       3529.       3530.       3530.    
        3530.       3533.       3533.       3533.       3538.       3538.       3538.       3541.       3541.       3541.    
        3541.       3541.       3541.       3539.       3539.       3539.       3539.       3540.       3543.       3545.    
        3546.       3546.       3544.       3544.       3544.       3544.       3544.       3545.       3548.       3548.    
        3547.       3549.       3549.       3550.       3550.       3549.    
  34    3504.       3498.       3496.       3493.       3493.       3493.       3493.       3488.       3488.       3488.    
        3486.       3489.       3494.       3498.       3497.       3497.       3497.       3497.       3497.       3494.    
        3494.       3494.       3494.       3494.       3494.       3494.       3500.       3500.       3500.       3502.    
        3502.       3502.       3500.       3500.       3500.       3499.       3499.       3499.       3502.       3502.    
        3502.       3504.       3504.       3504.       3502.       3502.       3502.       3501.       3501.       3501.    
        3502.       3502.       3502.       3504.       3504.       3504.       3503.       3503.       3503.       3504.    
        3504.       3504.       3506.       3506.       3506.       3508.       3508.       3508.       3511.       3511.    
        3511.       3510.       3510.       3510.       3510.       3511.       3511.       3511.       3511.       3511.    
        3511.       3511.       3511.       3511.       3510.       3510.       3510.       3511.       3511.       3511.    
        3512.       3512.       3512.       3513.       3513.       3513.       3514.       3514.       3514.       3515.    
        3515.       3515.       3515.       3515.       3515.       3516.       3516.       3516.       3518.       3518.    
        3518.       3521.       3521.       3521.       3521.       3521.       3521.       3521.       3521.       3521.    
        3523.       3523.       3523.       3525.       3525.       3525.       3524.       3524.       3524.       3520.    
        3520.       3520.       3520.       3520.       3520.       3520.       3524.       3524.       3524.       3529.    
        3529.       3529.       3530.       3530.       3530.       3530.       3530.       3530.       3531.       3531.    
        3531.       3530.       3530.       3530.       3531.       3531.       3531.       3535.       3535.       3535.    
        3537.       3537.       3537.       3539.       3539.       3540.       3540.       3542.       3544.       3544.    
        3546.       3546.       3546.       3546.       3545.       3546.       3546.       3551.       3553.       3551.    
        3550.       3551.       3551.       3552.       3553.       3553.    
  35    3504.       3498.       3496.       3493.       3493.       3493.       3493.       3488.       3488.       3488.    
        3486.       3489.       3494.       3498.       3497.       3497.       3497.       3497.       3497.       3494.    
        3494.       3494.       3494.       3494.       3494.       3494.       3500.       3500.       3500.       3502.    
        3502.       3502.       3500.       3500.       3500.       3499.       3499.       3499.       3502.       3502.    
        3502.       3504.       3504.       3504.       3502.       3502.       3502.       3501.       3501.       3501.    
        3502.       3502.       3502.       3504.       3504.       3504.       3503.       3503.       3503.       3504.    
        3504.       3504.       3506.       3506.       3506.       3508.       3508.       3508.       3511.       3511.    
        3511.       3510.       3510.       3510.       3510.       3511.       3511.       3511.       3511.       3511.    
        3511.       3511.       3511.       3511.       3510.       3510.       3510.       3511.       3511.       3511.    
        3512.       3512.       3512.       3513.       3513.       3513.       3514.       3514.       3514.       3515.    
        3515.       3515.       3515.       3515.       3515.       3516.       3516.       3516.       3518.       3518.    
        3518.       3521.       3521.       3521.       3521.       3521.       3521.       3521.       3521.       3521.    
        3523.       3523.       3523.       3525.       3525.       3525.       3524.       3524.       3524.       3520.    
        3520.       3520.       3520.       3520.       3520.       3520.       3524.       3524.       3524.       3529.    
        3529.       3529.       3530.       3530.       3530.       3530.       3530.       3530.       3531.       3531.    
        3531.       3530.       3530.       3530.       3531.       3531.       3531.       3535.       3535.       3535.    
        3537.       3537.       3537.       3539.       3539.       3540.       3540.       3542.       3544.       3544.    
        3546.       3546.       3546.       3546.       3545.       3546.       3546.       3551.       3553.       3551.    
        3550.       3551.       3551.       3552.       3553.       3553.    
  36    3504.       3498.       3496.       3493.       3493.       3493.       3493.       3488.       3488.       3488.    
        3486.       3489.       3494.       3498.       3497.       3497.       3497.       3497.       3497.       3494.    
        3494.       3494.       3494.       3494.       3494.       3494.       3500.       3500.       3500.       3502.    
        3502.       3502.       3500.       3500.       3500.       3499.       3499.       3499.       3502.       3502.    
        3502.       3504.       3504.       3504.       3502.       3502.       3502.       3501.       3501.       3501.    
        3502.       3502.       3502.       3504.       3504.       3504.       3503.       3503.       3503.       3504.    
        3504.       3504.       3506.       3506.       3506.       3508.       3508.       3508.       3511.       3511.    
        3511.       3510.       3510.       3510.       3510.       3511.       3511.       3511.       3511.       3511.    
        3511.       3511.       3511.       3511.       3510.       3510.       3510.       3511.       3511.       3511.    
        3512.       3512.       3512.       3513.       3513.       3513.       3514.       3514.       3514.       3515.    
        3515.       3515.       3515.       3515.       3515.       3516.       3516.       3516.       3518.       3518.    
        3518.       3521.       3521.       3521.       3521.       3521.       3521.       3521.       3521.       3521.    
        3523.       3523.       3523.       3525.       3525.       3525.       3524.       3524.       3524.       3524.    
        3520.       3520.       3520.       3520.       3520.       3520.       3524.       3524.       3524.       3529.    
        3529.       3529.       3530.       3530.       3530.       3530.       3530.       3530.       3531.       3531.    
        3531.       3530.       3530.       3530.       3531.       3531.       3531.       3535.       3535.       3535.    
        3537.       3537.       3537.       3539.       3539.       3540.       3540.       3542.       3544.       3544.    
        3546.       3546.       3546.       3546.       3545.       3546.       3546.       3551.       3553.       3551.    
        3550.       3551.       3551.       3552.       3553.       3553.    
  37    3509.       3504.       3498.       3496.       3496.       3496.       3494.       3491.       3490.       3490.    
        3487.       3488.       3493.       3494.       3494.       3494.       3496.       3496.       3496.       3493.    
        3493.       3493.       3493.       3491.       3491.       3491.       3494.       3494.       3494.       3496.    
        3496.       3496.       3497.       3497.       3497.       3497.       3497.       3497.       3500.       3500.    
        3500.       3502.       3502.       3502.       3501.       3501.       3501.       3502.       3502.       3502.    
        3504.       3504.       3504.       3505.       3505.       3505.       3507.       3507.       3507.       3508.    
        3508.       3508.       3510.       3510.       3510.       3511.       3511.       3511.       3512.       3512.    
        3512.       3511.       3511.       3511.       3511.       3511.       3511.       3511.       3511.       3511.    
        3511.       3512.       3512.       3512.       3512.       3512.       3512.       3512.       3512.       3512.    
        3514.       3514.       3514.       3515.       3515.       3515.       3516.       3516.       3516.       3517.    
        3517.       3517.       3517.       3517.       3517.       3518.       3518.       3518.       3518.       3518.    
        3518.       3519.       3519.       3519.       3520.       3520.       3520.       3521.       3521.       3521.    
        3522.       3522.       3522.       3525.       3525.       3525.       3526.       3526.       3526.       3525.    
        3525.       3525.       3525.       3524.       3524.       3524.       3527.       3527.       3527.       3529.    
        3529.       3529.       3530.       3530.       3530.       3530.       3530.       3530.       3530.       3530.    
        3530.       3530.       3530.       3530.       3529.       3529.       3529.       3531.       3531.       3531.    
        3533.       3533.       3533.       3538.       3538.       3541.       3541.       3540.       3540.       3542.    
        3544.       3544.       3545.       3549.       3550.       3552.       3552.       3552.       3553.       3550.    
        3549.       3551.       3551.       3551.       3553.       3555.    
  38    3509.       3504.       3498.       3496.       3496.       3496.       3494.       3491.       3490.       3490.    
        3487.       3488.       3493.       3494.       3494.       3494.       3496.       3496.       3496.       3493.    
        3493.       3493.       3493.       3491.       3491.       3491.       3494.       3494.       3494.       3496.    
        3496.       3496.       3497.       3497.       3497.       3497.       3497.       3497.       3500.       3500.    
        3500.       3502.       3502.       3502.       3501.       3501.       3501.       3502.       3502.       3502.    
        3504.       3504.       3504.       3505.       3505.       3505.       3507.       3507.       3507.       3508.    
        3508.       3508.       3510.       3510.       3510.       3511.       3511.       3511.       3512.       3512.    
        3512.       3511.       3511.       3511.       3511.       3511.       3511.       3511.       3511.       3511.    
        3511.       3512.       3512.       3512.       3512.       3512.       3512.       3512.       3512.       3512.    
        3514.       3514.       3514.       3515.       3515.       3515.       3516.       3516.       3516.       3517.    
        3517.       3517.       3517.       3517.       3517.       3518.       3518.       3518.       3518.       3518.    
        3518.       3519.       3519.       3519.       3520.       3520.       3520.       3521.       3521.       3521.    
        3522.       3522.       3522.       3525.       3525.       3525.       3526.       3526.       3526.       3525.    
        3525.       3525.       3525.       3524.       3524.       3524.       3527.       3527.       3527.       3529.    
        3529.       3529.       3530.       3530.       3530.       3530.       3530.       3530.       3530.       3530.    
        3530.       3530.       3530.       3530.       3529.       3529.       3529.       3531.       3531.       3531.    
        3533.       3533.       3533.       3538.       3538.       3541.       3541.       3540.       3540.       3542.    
        3544.       3544.       3545.       3549.       3550.       3552.       3552.       3552.       3553.       3550.    
        3549.       3551.       3551.       3551.       3553.       3555.    
  39    3509.       3504.       3498.       3496.       3496.       3496.       3494.       3491.       3490.       3490.    
        3487.       3488.       3493.       3494.       3494.       3494.       3496.       3496.       3496.       3493.    
        3493.       3493.       3493.       3491.       3491.       3491.       3494.       3494.       3494.       3496.    
        3496.       3496.       3497.       3497.       3497.       3497.       3497.       3497.       3500.       3500.    
        3500.       3502.       3502.       3502.       3501.       3501.       3501.       3502.       3502.       3502.    
        3504.       3504.       3504.       3505.       3505.       3505.       3507.       3507.       3507.       3508.    
        3508.       3508.       3510.       3510.       3510.       3511.       3511.       3511.       3512.       3512.    
        3512.       3511.       3511.       3511.       3511.       3511.       3511.       3511.       3511.       3511.    
        3511.       3512.       3512.       3512.       3512.       3512.       3512.       3512.       3512.       3512.    
        3514.       3514.       3514.       3515.       3515.       3515.       3516.       3516.       3516.       3517.    
        3517.       3517.       3517.       3517.       3517.       3518.       3518.       3518.       3518.       3518.    
        3518.       3519.       3519.       3519.       3520.       3520.       3520.       3521.       3521.       3521.    
        3522.       3522.       3522.       3525.       3525.       3525.       3526.       3526.       3526.       3525.    
        3525.       3525.       3525.       3524.       3524.       3524.       3527.       3527.       3527.       3529.    
        3529.       3529.       3530.       3530.       3530.       3530.       3530.       3530.       3530.       3530.    
        3530.       3530.       3530.       3530.       3529.       3529.       3529.       3531.       3531.       3531.    
        3533.       3533.       3533.       3538.       3538.       3541.       3541.       3540.       3540.       3542.    
        3544.       3544.       3545.       3549.       3550.       3552.       3552.       3552.       3553.       3550.    
        3549.       3551.       3551.       3551.       3553.       3555.    
  40    3518.       3512.       3504.       3497.       3497.       3497.       3496.       3496.       3490.       3490.    
        3493.       3495.       3489.       3493.       3495.       3495.       3493.       3493.       3493.       3495.    
        3495.       3495.       3495.       3490.       3490.       3490.       3490.       3490.       3490.       3493.    
        3493.       3493.       3494.       3494.       3494.       3499.       3499.       3499.       3501.       3501.    
        3501.       3502.       3502.       3502.       3501.       3501.       3501.       3501.       3501.       3501.    
        3501.       3501.       3501.       3504.       3504.       3504.       3505.       3505.       3505.       3506.    
        3506.       3506.       3506.       3506.       3506.       3507.       3507.       3507.       3506.       3506.    
        3506.       3506.       3506.       3506.       3506.       3508.       3508.       3508.       3509.       3509.    
        3509.       3509.       3509.       3509.       3509.       3509.       3509.       3510.       3510.       3510.    
        3514.       3514.       3514.       3515.       3515.       3515.       3515.       3515.       3515.       3515.    
        3515.       3515.       3517.       3517.       3517.       3516.       3516.       3516.       3516.       3516.    
        3516.       3516.       3516.       3516.       3516.       3516.       3516.       3517.       3517.       3517.    
        3519.       3519.       3519.       3521.       3521.       3521.       3522.       3522.       3522.       3523.    
        3523.       3523.       3523.       3523.       3523.       3523.       3523.       3523.       3523.       3526.    
        3526.       3526.       3529.       3529.       3529.       3531.       3531.       3531.       3531.       3531.    
        3531.       3532.       3532.       3532.       3533.       3533.       3533.       3534.       3534.       3534.    
        3536.       3536.       3536.       3540.       3540.       3540.       3540.       3540.       3542.       3545.    
        3544.       3544.       3544.       3547.       3545.       3550.       3550.       3552.       3552.       3550.    
        3548.       3549.       3549.       3550.       3552.       3554.    
  41    3518.       3512.       3504.       3497.       3497.       3497.       3496.       3496.       3490.       3490.    
        3493.       3495.       3489.       3493.       3495.       3495.       3493.       3493.       3493.       3495.    
        3495.       3495.       3495.       3490.       3490.       3490.       3490.       3490.       3490.       3493.    
        3493.       3493.       3494.       3494.       3494.       3499.       3499.       3499.       3501.       3501.    
        3501.       3502.       3502.       3502.       3501.       3501.       3501.       3501.       3501.       3501.    
        3501.       3501.       3501.       3504.       3504.       3504.       3505.       3505.       3505.       3506.    
        3506.       3506.       3506.       3506.       3506.       3507.       3507.       3507.       3506.       3506.    
        3506.       3506.       3506.       3506.       3506.       3508.       3508.       3508.       3509.       3509.    
        3509.       3509.       3509.       3509.       3509.       3509.       3509.       3510.       3510.       3510.    
        3514.       3514.       3514.       3515.       3515.       3515.       3515.       3515.       3515.       3515.    
        3515.       3515.       3517.       3517.       3517.       3516.       3516.       3516.       3516.       3516.    
        3516.       3516.       3516.       3516.       3516.       3516.       3516.       3517.       3517.       3517.    
        3519.       3519.       3519.       3521.       3521.       3521.       3522.       3522.       3522.       3523.    
        3523.       3523.       3523.       3523.       3523.       3523.       3523.       3523.       3523.       3526.    
        3526.       3526.       3529.       3529.       3529.       3531.       3531.       3531.       3531.       3531.    
        3531.       3532.       3532.       3532.       3533.       3533.       3533.       3534.       3534.       3534.    
        3536.       3536.       3536.       3540.       3540.       3540.       3540.       3540.       3542.       3545.    
        3544.       3544.       3544.       3547.       3545.       3550.       3550.       3552.       3552.       3550.    
        3548.       3549.       3549.       3550.       3552.       3554.    
  42    3518.       3512.       3504.       3497.       3497.       3497.       3496.       3496.       3490.       3490.    
        3493.       3495.       3489.       3493.       3495.       3495.       3493.       3493.       3493.       3495.    
        3495.       3495.       3495.       3490.       3490.       3490.       3490.       3490.       3490.       3493.    
        3493.       3493.       3494.       3494.       3494.       3499.       3499.       3499.       3501.       3501.    
        3501.       3502.       3502.       3502.       3501.       3501.       3501.       3501.       3501.       3501.    
        3501.       3501.       3501.       3504.       3504.       3504.       3505.       3505.       3505.       3506.    
        3506.       3506.       3506.       3506.       3506.       3507.       3507.       3507.       3506.       3506.    
        3506.       3506.       3506.       3506.       3506.       3508.       3508.       3508.       3509.       3509.    
        3509.       3509.       3509.       3509.       3509.       3509.       3509.       3510.       3510.       3510.    
        3514.       3514.       3514.       3515.       3515.       3515.       3515.       3515.       3515.       3515.    
        3515.       3515.       3517.       3517.       3517.       3516.       3516.       3516.       3516.       3516.    
        3516.       3516.       3516.       3516.       3516.       3516.       3516.       3517.       3517.       3517.    
        3519.       3519.       3519.       3521.       3521.       3521.       3522.       3522.       3522.       3523.    
        3523.       3523.       3523.       3523.       3523.       3523.       3523.       3523.       3523.       3526.    
        3526.       3526.       3529.       3529.       3529.       3531.       3531.       3531.       3531.       3531.    
        3531.       3532.       3532.       3532.       3533.       3533.       3533.       3534.       3534.       3534.    
        3536.       3536.       3536.       3540.       3540.       3540.       3540.       3540.       3542.       3545.    
        3544.       3544.       3544.       3547.       3545.       3550.       3550.       3552.       3552.       3550.    
        3548.       3549.       3549.       3550.       3552.       3554.    
  43    3518.       3512.       3504.       3497.       3497.       3497.       3496.       3496.       3490.       3490.    
        3493.       3495.       3489.       3493.       3495.       3495.       3493.       3493.       3493.       3495.    
        3495.       3495.       3495.       3490.       3490.       3490.       3490.       3490.       3490.       3493.    
        3493.       3493.       3494.       3494.       3494.       3499.       3499.       3499.       3501.       3501.    
        3501.       3502.       3502.       3502.       3501.       3501.       3501.       3501.       3501.       3501.    
        3501.       3501.       3501.       3504.       3504.       3504.       3505.       3505.       3505.       3506.    
        3506.       3506.       3506.       3506.       3506.       3507.       3507.       3507.       3506.       3506.    
        3506.       3506.       3506.       3506.       3506.       3508.       3508.       3508.       3509.       3509.    
        3509.       3509.       3509.       3509.       3509.       3509.       3509.       3510.       3510.       3510.    
        3514.       3514.       3514.       3515.       3515.       3515.       3515.       3515.       3515.       3515.    
        3515.       3515.       3517.       3517.       3517.       3516.       3516.       3516.       3516.       3516.    
        3516.       3516.       3516.       3516.       3516.       3516.       3516.       3517.       3517.       3517.    
        3519.       3519.       3519.       3521.       3521.       3521.       3522.       3522.       3522.       3523.    
        3523.       3523.       3523.       3523.       3523.       3523.       3523.       3523.       3523.       3526.    
        3526.       3526.       3529.       3529.       3529.       3531.       3531.       3531.       3531.       3531.    
        3531.       3532.       3532.       3532.       3533.       3533.       3533.       3534.       3534.       3534.    
        3536.       3536.       3536.       3540.       3540.       3540.       3540.       3540.       3542.       3545.    
        3544.       3544.       3544.       3547.       3545.       3550.       3550.       3552.       3552.       3550.    
        3548.       3549.       3549.       3550.       3552.       3554.    
  44    3522.       3515.       3507.       3496.       3496.       3496.       3500.       3503.       3498.       3498.    
        3493.       3490.       3498.       3495.       3496.       3496.       3493.       3493.       3493.       3494.    
        3494.       3494.       3494.       3494.       3494.       3494.       3493.       3493.       3493.       3494.    
        3494.       3494.       3498.       3498.       3498.       3499.       3499.       3499.       3499.       3499.    
        3499.       3501.       3501.       3501.       3502.       3502.       3502.       3502.       3502.       3502.    
        3502.       3502.       3502.       3505.       3505.       3505.       3507.       3507.       3507.       3509.    
        3509.       3509.       3509.       3509.       3509.       3510.       3510.       3510.       3509.       3509.    
        3509.       3509.       3509.       3509.       3509.       3510.       3510.       3510.       3511.       3511.    
        3511.       3509.       3509.       3509.       3509.       3509.       3509.       3511.       3511.       3511.    
        3513.       3513.       3513.       3513.       3513.       3513.       3516.       3516.       3516.       3517.    
        3517.       3517.       3517.       3517.       3517.       3516.       3516.       3516.       3515.       3515.    
        3515.       3515.       3515.       3515.       3515.       3515.       3515.       3513.       3513.       3513.    
        3513.       3513.       3513.       3515.       3515.       3515.       3517.       3517.       3517.       3519.    
        3519.       3519.       3519.       3520.       3520.       3520.       3519.       3519.       3519.       3521.    
        3521.       3521.       3524.       3524.       3524.       3529.       3529.       3529.       3531.       3531.    
        3531.       3533.       3533.       3533.       3534.       3534.       3534.       3536.       3536.       3536.    
        3539.       3539.       3539.       3540.       3540.       3539.       3539.       3539.       3541.       3546.    
        3548.       3548.       3550.       3552.       3553.       3551.       3551.       3550.       3550.       3551.    
        3550.       3550.       3550.       3550.       3552.       3555.    
  45    3522.       3515.       3507.       3496.       3496.       3496.       3500.       3503.       3498.       3498.    
        3493.       3490.       3498.       3495.       3496.       3496.       3493.       3493.       3493.       3494.    
        3494.       3494.       3494.       3494.       3494.       3494.       3493.       3493.       3493.       3494.    
        3494.       3494.       3498.       3498.       3498.       3499.       3499.       3499.       3499.       3499.    
        3499.       3501.       3501.       3501.       3502.       3502.       3502.       3502.       3502.       3502.    
        3502.       3502.       3502.       3505.       3505.       3505.       3507.       3507.       3507.       3509.    
        3509.       3509.       3509.       3509.       3509.       3510.       3510.       3510.       3509.       3509.    
        3509.       3509.       3509.       3509.       3509.       3510.       3510.       3510.       3511.       3511.    
        3511.       3509.       3509.       3509.       3509.       3509.       3509.       3511.       3511.       3511.    
        3513.       3513.       3513.       3513.       3513.       3513.       3516.       3516.       3516.       3517.    
        3517.       3517.       3517.       3517.       3517.       3516.       3516.       3516.       3515.       3515.    
        3515.       3515.       3515.       3515.       3515.       3515.       3515.       3513.       3513.       3513.    
        3513.       3513.       3513.       3515.       3515.       3515.       3517.       3517.       3517.       3519.    
        3519.       3519.       3519.       3520.       3520.       3520.       3519.       3519.       3519.       3521.    
        3521.       3521.       3524.       3524.       3524.       3529.       3529.       3529.       3531.       3531.    
        3531.       3533.       3533.       3533.       3534.       3534.       3534.       3536.       3536.       3536.    
        3539.       3539.       3539.       3540.       3540.       3539.       3539.       3539.       3541.       3546.    
        3548.       3548.       3550.       3552.       3553.       3551.       3551.       3550.       3550.       3551.    
        3550.       3550.       3550.       3550.       3552.       3555.    
  46    3522.       3515.       3507.       3496.       3496.       3496.       3500.       3503.       3498.       3498.    
        3493.       3490.       3498.       3495.       3496.       3496.       3493.       3493.       3493.       3494.    
        3494.       3494.       3494.       3494.       3494.       3494.       3493.       3493.       3493.       3494.    
        3494.       3494.       3498.       3498.       3498.       3499.       3499.       3499.       3499.       3499.    
        3499.       3501.       3501.       3501.       3502.       3502.       3502.       3502.       3502.       3502.    
        3502.       3502.       3502.       3505.       3505.       3505.       3507.       3507.       3507.       3509.    
        3509.       3509.       3509.       3509.       3509.       3510.       3510.       3510.       3509.       3509.    
        3509.       3509.       3509.       3509.       3509.       3510.       3510.       3510.       3511.       3511.    
        3511.       3509.       3509.       3509.       3509.       3509.       3509.       3511.       3511.       3511.    
        3513.       3513.       3513.       3513.       3513.       3513.       3516.       3516.       3516.       3517.    
        3517.       3517.       3517.       3517.       3517.       3516.       3516.       3516.       3515.       3515.    
        3515.       3515.       3515.       3515.       3515.       3515.       3515.       3513.       3513.       3513.    
        3513.       3513.       3513.       3515.       3515.       3515.       3517.       3517.       3517.       3519.    
        3519.       3519.       3519.       3520.       3520.       3520.       3519.       3519.       3519.       3521.    
        3521.       3521.       3524.       3524.       3524.       3529.       3529.       3529.       3531.       3531.    
        3531.       3533.       3533.       3533.       3534.       3534.       3534.       3536.       3536.       3536.    
        3539.       3539.       3539.       3540.       3540.       3539.       3539.       3539.       3541.       3546.    
        3548.       3548.       3550.       3552.       3553.       3551.       3551.       3550.       3550.       3551.    
        3550.       3550.       3550.       3550.       3552.       3555.    
  47    3524.       3518.       3511.       3503.       3503.       3500.       3503.       3507.       3502.       3502.    
        3496.       3495.       3495.       3495.       3497.       3497.       3496.       3496.       3496.       3495.    
        3495.       3495.       3495.       3497.       3497.       3497.       3497.       3497.       3497.       3497.    
        3497.       3497.       3499.       3499.       3499.       3500.       3500.       3500.       3500.       3500.    
        3500.       3499.       3499.       3499.       3499.       3499.       3499.       3501.       3501.       3501.    
        3502.       3502.       3502.       3503.       3503.       3503.       3504.       3504.       3504.       3505.    
        3505.       3505.       3506.       3506.       3506.       3507.       3507.       3507.       3507.       3507.    
        3507.       3508.       3508.       3508.       3508.       3508.       3508.       3508.       3509.       3509.    
        3509.       3511.       3511.       3511.       3513.       3513.       3513.       3514.       3514.       3514.    
        3514.       3514.       3514.       3513.       3513.       3513.       3515.       3515.       3515.       3517.    
        3517.       3517.       3519.       3519.       3519.       3519.       3519.       3519.       3517.       3517.    
        3517.       3517.       3517.       3517.       3516.       3516.       3516.       3516.       3516.       3516.    
        3517.       3517.       3517.       3519.       3519.       3519.       3521.       3521.       3521.       3523.    
        3523.       3523.       3523.       3523.       3523.       3523.       3523.       3523.       3523.       3524.    
        3524.       3524.       3526.       3526.       3526.       3531.       3531.       3531.       3533.       3533.    
        3533.       3533.       3533.       3533.       3535.       3535.       3535.       3538.       3538.       3538.    
        3538.       3538.       3538.       3538.       3538.       3539.       3539.       3541.       3543.       3544.    
        3547.       3547.       3550.       3552.       3554.       3551.       3551.       3549.       3548.       3549.    
        3549.       3550.       3550.       3550.       3550.       3551.    
  48    3524.       3518.       3511.       3503.       3503.       3500.       3503.       3507.       3502.       3502.    
        3496.       3495.       3495.       3495.       3497.       3497.       3496.       3496.       3496.       3495.    
        3495.       3495.       3495.       3497.       3497.       3497.       3497.       3497.       3497.       3497.    
        3497.       3497.       3499.       3499.       3499.       3500.       3500.       3500.       3500.       3500.    
        3500.       3499.       3499.       3499.       3499.       3499.       3499.       3501.       3501.       3501.    
        3502.       3502.       3502.       3503.       3503.       3503.       3504.       3504.       3504.       3505.    
        3505.       3505.       3506.       3506.       3506.       3507.       3507.       3507.       3507.       3507.    
        3507.       3508.       3508.       3508.       3508.       3508.       3508.       3508.       3509.       3509.    
        3509.       3511.       3511.       3511.       3513.       3513.       3513.       3514.       3514.       3514.    
        3514.       3514.       3514.       3513.       3513.       3513.       3515.       3515.       3515.       3517.    
        3517.       3517.       3519.       3519.       3519.       3519.       3519.       3519.       3517.       3517.    
        3517.       3517.       3517.       3517.       3516.       3516.       3516.       3516.       3516.       3516.    
        3517.       3517.       3517.       3519.       3519.       3519.       3521.       3521.       3521.       3523.    
        3523.       3523.       3523.       3523.       3523.       3523.       3523.       3523.       3523.       3524.    
        3524.       3524.       3526.       3526.       3526.       3531.       3531.       3531.       3533.       3533.    
        3533.       3533.       3533.       3533.       3535.       3535.       3535.       3538.       3538.       3538.    
        3538.       3538.       3538.       3538.       3538.       3539.       3539.       3541.       3543.       3544.    
        3547.       3547.       3550.       3552.       3554.       3551.       3551.       3549.       3548.       3549.    
        3549.       3550.       3550.       3550.       3550.       3551.    
  49    3524.       3518.       3511.       3503.       3503.       3500.       3503.       3507.       3502.       3502.    
        3496.       3495.       3495.       3495.       3497.       3497.       3496.       3496.       3496.       3495.    
        3495.       3495.       3495.       3497.       3497.       3497.       3497.       3497.       3497.       3497.    
        3497.       3497.       3499.       3499.       3499.       3500.       3500.       3500.       3500.       3500.    
        3500.       3499.       3499.       3499.       3499.       3499.       3499.       3501.       3501.       3501.    
        3502.       3502.       3502.       3503.       3503.       3503.       3504.       3504.       3504.       3505.    
        3505.       3505.       3506.       3506.       3506.       3507.       3507.       3507.       3507.       3507.    
        3507.       3508.       3508.       3508.       3508.       3508.       3508.       3508.       3509.       3509.    
        3509.       3511.       3511.       3511.       3513.       3513.       3513.       3514.       3514.       3514.    
        3514.       3514.       3514.       3513.       3513.       3513.       3515.       3515.       3515.       3517.    
        3517.       3517.       3519.       3519.       3519.       3519.       3519.       3519.       3517.       3517.    
        3517.       3517.       3517.       3517.       3516.       3516.       3516.       3516.       3516.       3516.    
        3517.       3517.       3517.       3519.       3519.       3519.       3521.       3521.       3521.       3523.    
        3523.       3523.       3523.       3523.       3523.       3523.       3523.       3523.       3523.       3524.    
        3524.       3524.       3526.       3526.       3526.       3531.       3531.       3531.       3533.       3533.    
        3533.       3533.       3533.       3533.       3535.       3535.       3535.       3538.       3538.       3538.    
        3538.       3538.       3538.       3538.       3538.       3539.       3539.       3541.       3543.       3544.    
        3547.       3547.       3550.       3552.       3554.       3551.       3551.       3549.       3548.       3549.    
        3549.       3550.       3550.       3550.       3550.       3551.    
  50    3525.       3520.       3515.       3507.       3507.       3502.       3501.       3503.       3495.       3495.    
        3492.       3496.       3492.       3492.       3494.       3494.       3494.       3494.       3494.       3494.    
        3494.       3494.       3494.       3496.       3496.       3496.       3495.       3495.       3495.       3495.    
        3495.       3495.       3499.       3499.       3499.       3503.       3503.       3503.       3502.       3502.    
        3502.       3502.       3502.       3502.       3502.       3502.       3502.       3504.       3504.       3504.    
        3505.       3505.       3505.       3506.       3506.       3506.       3506.       3506.       3506.       3507.    
        3507.       3507.       3508.       3508.       3508.       3509.       3509.       3509.       3510.       3510.    
        3510.       3511.       3511.       3511.       3511.       3512.       3512.       3512.       3513.       3513.    
        3513.       3515.       3515.       3515.       3515.       3515.       3515.       3515.       3515.       3515.    
        3515.       3515.       3515.       3515.       3515.       3515.       3515.       3515.       3515.       3515.    
        3515.       3515.       3516.       3516.       3516.       3516.       3516.       3516.       3519.       3519.    
        3519.       3521.       3521.       3521.       3520.       3520.       3520.       3520.       3520.       3520.    
        3522.       3522.       3522.       3522.       3522.       3522.       3521.       3521.       3521.       3522.    
        3522.       3522.       3522.       3522.       3522.       3522.       3523.       3523.       3523.       3524.    
        3524.       3524.       3527.       3527.       3527.       3533.       3533.       3533.       3534.       3534.    
        3534.       3534.       3534.       3534.       3535.       3535.       3535.       3536.       3536.       3536.    
        3538.       3538.       3538.       3538.       3538.       3539.       3539.       3540.       3541.       3541.    
        3543.       3543.       3545.       3548.       3549.       3549.       3549.       3547.       3546.       3547.    
        3547.       3549.       3549.       3548.       3550.       3551.    
  51    3525.       3520.       3515.       3507.       3507.       3502.       3501.       3503.       3495.       3495.    
        3492.       3496.       3492.       3492.       3494.       3494.       3494.       3494.       3494.       3494.    
        3494.       3494.       3494.       3496.       3496.       3496.       3495.       3495.       3495.       3495.    
        3495.       3495.       3499.       3499.       3499.       3503.       3503.       3503.       3502.       3502.    
        3502.       3502.       3502.       3502.       3502.       3502.       3502.       3504.       3504.       3504.    
        3505.       3505.       3505.       3506.       3506.       3506.       3506.       3506.       3506.       3507.    
        3507.       3507.       3508.       3508.       3508.       3509.       3509.       3509.       3510.       3510.    
        3510.       3511.       3511.       3511.       3511.       3512.       3512.       3512.       3513.       3513.    
        3513.       3515.       3515.       3515.       3515.       3515.       3515.       3515.       3515.       3515.    
        3515.       3515.       3515.       3515.       3515.       3515.       3515.       3515.       3515.       3515.    
        3515.       3515.       3516.       3516.       3516.       3516.       3516.       3516.       3519.       3519.    
        3519.       3521.       3521.       3521.       3520.       3520.       3520.       3520.       3520.       3520.    
        3522.       3522.       3522.       3522.       3522.       3522.       3521.       3521.       3521.       3522.    
        3522.       3522.       3522.       3522.       3522.       3522.       3523.       3523.       3523.       3524.    
        3524.       3524.       3527.       3527.       3527.       3533.       3533.       3533.       3534.       3534.    
        3534.       3534.       3534.       3534.       3535.       3535.       3535.       3536.       3536.       3536.    
        3538.       3538.       3538.       3538.       3538.       3539.       3539.       3540.       3541.       3541.    
        3543.       3543.       3545.       3548.       3549.       3549.       3549.       3547.       3546.       3547.    
        3547.       3549.       3549.       3548.       3550.       3551.    
  52    3525.       3520.       3515.       3507.       3507.       3502.       3501.       3503.       3495.       3495.    
        3492.       3496.       3492.       3492.       3494.       3494.       3494.       3494.       3494.       3494.    
        3494.       3494.       3494.       3496.       3496.       3496.       3495.       3495.       3495.       3495.    
        3495.       3495.       3499.       3499.       3499.       3503.       3503.       3503.       3502.       3502.    
        3502.       3502.       3502.       3502.       3502.       3502.       3502.       3504.       3504.       3504.    
        3505.       3505.       3505.       3506.       3506.       3506.       3506.       3506.       3506.       3507.    
        3507.       3507.       3508.       3508.       3508.       3509.       3509.       3509.       3510.       3510.    
        3510.       3511.       3511.       3511.       3511.       3512.       3512.       3512.       3513.       3513.    
        3513.       3515.       3515.       3515.       3515.       3515.       3515.       3515.       3515.       3515.    
        3515.       3515.       3515.       3515.       3515.       3515.       3515.       3515.       3515.       3515.    
        3515.       3515.       3516.       3516.       3516.       3516.       3516.       3516.       3519.       3519.    
        3519.       3521.       3521.       3521.       3520.       3520.       3520.       3520.       3520.       3520.    
        3522.       3522.       3522.       3522.       3522.       3522.       3521.       3521.       3521.       3522.    
        3522.       3522.       3522.       3522.       3522.       3522.       3523.       3523.       3523.       3524.    
        3524.       3524.       3527.       3527.       3527.       3533.       3533.       3533.       3534.       3534.    
        3534.       3534.       3534.       3534.       3535.       3535.       3535.       3536.       3536.       3536.    
        3538.       3538.       3538.       3538.       3538.       3539.       3539.       3540.       3541.       3541.    
        3543.       3543.       3545.       3548.       3549.       3549.       3549.       3547.       3546.       3547.    
        3547.       3549.       3549.       3548.       3550.       3551.    
  53    3527.       3520.       3517.       3511.       3511.       3507.       3504.       3499.       3494.       3494.    
        3491.       3493.       3490.       3493.       3494.       3494.       3495.       3495.       3495.       3493.    
        3493.       3493.       3493.       3496.       3496.       3496.       3498.       3498.       3498.       3498.    
        3498.       3498.       3500.       3500.       3500.       3501.       3501.       3501.       3500.       3500.    
        3500.       3499.       3499.       3499.       3501.       3501.       3501.       3504.       3504.       3504.    
        3505.       3505.       3505.       3506.       3506.       3506.       3507.       3507.       3507.       3508.    
        3508.       3508.       3509.       3509.       3509.       3509.       3509.       3509.       3511.       3511.    
        3511.       3512.       3512.       3512.       3512.       3513.       3513.       3513.       3514.       3514.    
        3514.       3515.       3515.       3515.       3515.       3515.       3515.       3515.       3515.       3515.    
        3513.       3513.       3513.       3514.       3514.       3514.       3514.       3514.       3514.       3516.    
        3516.       3516.       3520.       3520.       3520.       3520.       3520.       3520.       3520.       3520.    
        3520.       3520.       3520.       3520.       3519.       3519.       3519.       3519.       3519.       3519.    
        3520.       3520.       3520.       3522.       3522.       3522.       3520.       3520.       3520.       3521.    
        3521.       3521.       3521.       3523.       3523.       3523.       3528.       3528.       3528.       3530.    
        3530.       3530.       3531.       3531.       3531.       3533.       3533.       3533.       3536.       3536.    
        3536.       3535.       3535.       3535.       3534.       3534.       3534.       3536.       3536.       3536.    
        3537.       3537.       3537.       3537.       3537.       3537.       3537.       3537.       3538.       3539.    
        3542.       3542.       3544.       3547.       3550.       3548.       3548.       3546.       3546.       3547.    
        3549.       3551.       3551.       3552.       3553.       3554.    
  54    3527.       3520.       3517.       3511.       3511.       3507.       3504.       3499.       3494.       3494.    
        3491.       3493.       3490.       3493.       3494.       3494.       3495.       3495.       3495.       3493.    
        3493.       3493.       3493.       3496.       3496.       3496.       3498.       3498.       3498.       3498.    
        3498.       3498.       3500.       3500.       3500.       3501.       3501.       3501.       3500.       3500.    
        3500.       3499.       3499.       3499.       3501.       3501.       3501.       3504.       3504.       3504.    
        3505.       3505.       3505.       3506.       3506.       3506.       3507.       3507.       3507.       3508.    
        3508.       3508.       3509.       3509.       3509.       3509.       3509.       3509.       3511.       3511.    
        3511.       3512.       3512.       3512.       3512.       3513.       3513.       3513.       3514.       3514.    
        3514.       3515.       3515.       3515.       3515.       3515.       3515.       3515.       3515.       3515.    
        3513.       3513.       3513.       3514.       3514.       3514.       3514.       3514.       3514.       3516.    
        3516.       3516.       3520.       3520.       3520.       3520.       3520.       3520.       3520.       3520.    
        3520.       3520.       3520.       3520.       3519.       3519.       3519.       3519.       3519.       3519.    
        3520.       3520.       3520.       3522.       3522.       3522.       3520.       3520.       3520.       3521.    
        3521.       3521.       3521.       3523.       3523.       3523.       3528.       3528.       3528.       3530.    
        3530.       3530.       3531.       3531.       3531.       3533.       3533.       3533.       3536.       3536.    
        3536.       3535.       3535.       3535.       3534.       3534.       3534.       3536.       3536.       3536.    
        3537.       3537.       3537.       3537.       3537.       3537.       3537.       3537.       3538.       3539.    
        3542.       3542.       3544.       3547.       3550.       3548.       3548.       3546.       3546.       3547.    
        3549.       3551.       3551.       3552.       3553.       3554.    
  55    3527.       3520.       3517.       3511.       3511.       3507.       3504.       3499.       3494.       3494.    
        3491.       3493.       3490.       3493.       3494.       3494.       3495.       3495.       3495.       3493.    
        3493.       3493.       3493.       3496.       3496.       3496.       3498.       3498.       3498.       3498.    
        3498.       3498.       3500.       3500.       3500.       3501.       3501.       3501.       3500.       3500.    
        3500.       3499.       3499.       3499.       3501.       3501.       3501.       3504.       3504.       3504.    
        3505.       3505.       3505.       3506.       3506.       3506.       3507.       3507.       3507.       3508.    
        3508.       3508.       3509.       3509.       3509.       3509.       3509.       3509.       3511.       3511.    
        3511.       3512.       3512.       3512.       3512.       3513.       3513.       3513.       3514.       3514.    
        3514.       3515.       3515.       3515.       3515.       3515.       3515.       3515.       3515.       3515.    
        3513.       3513.       3513.       3514.       3514.       3514.       3514.       3514.       3514.       3516.    
        3516.       3516.       3520.       3520.       3520.       3520.       3520.       3520.       3520.       3520.    
        3520.       3520.       3520.       3520.       3519.       3519.       3519.       3519.       3519.       3519.    
        3520.       3520.       3520.       3522.       3522.       3522.       3520.       3520.       3520.       3520.    
        3521.       3521.       3521.       3523.       3523.       3523.       3528.       3528.       3528.       3530.    
        3530.       3530.       3531.       3531.       3531.       3533.       3533.       3533.       3536.       3536.    
        3536.       3535.       3535.       3535.       3534.       3534.       3534.       3536.       3536.       3536.    
        3537.       3537.       3537.       3537.       3537.       3537.       3537.       3537.       3538.       3539.    
        3542.       3542.       3544.       3547.       3550.       3548.       3548.       3546.       3546.       3547.    
        3549.       3551.       3551.       3552.       3553.       3554.    
  56    3527.       3522.       3518.       3514.       3514.       3511.       3510.       3507.       3501.       3501.    
        3496.       3493.       3490.       3493.       3497.       3497.       3495.       3495.       3495.       3495.    
        3495.       3495.       3495.       3495.       3495.       3495.       3495.       3495.       3495.       3498.    
        3498.       3498.       3501.       3501.       3501.       3501.       3501.       3501.       3500.       3500.    
        3500.       3500.       3500.       3500.       3501.       3501.       3501.       3503.       3503.       3503.    
        3504.       3504.       3504.       3504.       3504.       3504.       3506.       3506.       3506.       3509.    
        3509.       3509.       3509.       3509.       3509.       3509.       3509.       3509.       3509.       3509.    
        3509.       3509.       3509.       3509.       3509.       3510.       3510.       3510.       3512.       3512.    
        3512.       3513.       3513.       3513.       3516.       3516.       3516.       3516.       3516.       3516.    
        3518.       3518.       3518.       3517.       3517.       3517.       3515.       3515.       3515.       3515.    
        3515.       3515.       3519.       3519.       3519.       3521.       3521.       3521.       3521.       3521.    
        3521.       3519.       3519.       3519.       3518.       3518.       3518.       3519.       3519.       3519.    
        3521.       3521.       3521.       3524.       3524.       3524.       3525.       3525.       3525.       3527.    
        3527.       3527.       3527.       3529.       3529.       3529.       3531.       3531.       3531.       3531.    
        3531.       3531.       3532.       3532.       3532.       3532.       3532.       3532.       3534.       3534.    
        3534.       3536.       3536.       3536.       3538.       3538.       3538.       3538.       3538.       3538.    
        3537.       3537.       3537.       3536.       3536.       3537.       3537.       3535.       3537.       3543.    
        3547.       3547.       3549.       3550.       3553.       3553.       3553.       3550.       3550.       3550.    
        3550.       3551.       3551.       3553.       3555.       3559.    
  57    3527.       3522.       3518.       3514.       3514.       3511.       3510.       3507.       3501.       3501.    
        3496.       3493.       3490.       3493.       3497.       3497.       3495.       3495.       3495.       3495.    
        3495.       3495.       3495.       3495.       3495.       3495.       3495.       3495.       3495.       3498.    
        3498.       3498.       3501.       3501.       3501.       3501.       3501.       3501.       3500.       3500.    
        3500.       3500.       3500.       3500.       3501.       3501.       3501.       3503.       3503.       3503.    
        3504.       3504.       3504.       3504.       3504.       3504.       3506.       3506.       3506.       3509.    
        3509.       3509.       3509.       3509.       3509.       3509.       3509.       3509.       3509.       3509.    
        3509.       3509.       3509.       3509.       3509.       3510.       3510.       3510.       3512.       3512.    
        3512.       3513.       3513.       3513.       3516.       3516.       3516.       3516.       3516.       3516.    
        3518.       3518.       3518.       3517.       3517.       3517.       3515.       3515.       3515.       3515.    
        3515.       3515.       3519.       3519.       3519.       3521.       3521.       3521.       3521.       3521.    
        3521.       3519.       3519.       3519.       3518.       3518.       3518.       3519.       3519.       3519.    
        3521.       3521.       3521.       3524.       3524.       3524.       3525.       3525.       3525.       3527.    
        3527.       3527.       3527.       3529.       3529.       3529.       3531.       3531.       3531.       3531.    
        3531.       3531.       3532.       3532.       3532.       3532.       3532.       3532.       3534.       3534.    
        3534.       3536.       3536.       3536.       3538.       3538.       3538.       3538.       3538.       3538.    
        3537.       3537.       3537.       3536.       3536.       3537.       3537.       3535.       3537.       3543.    
        3547.       3547.       3549.       3550.       3553.       3553.       3553.       3550.       3550.       3550.    
        3550.       3551.       3551.       3553.       3555.       3559.    
  58    3527.       3522.       3518.       3514.       3514.       3511.       3510.       3507.       3501.       3501.    
        3496.       3493.       3490.       3493.       3497.       3497.       3495.       3495.       3495.       3495.    
        3495.       3495.       3495.       3495.       3495.       3495.       3495.       3495.       3495.       3498.    
        3498.       3498.       3501.       3501.       3501.       3501.       3501.       3501.       3500.       3500.    
        3500.       3500.       3500.       3500.       3501.       3501.       3501.       3503.       3503.       3503.    
        3504.       3504.       3504.       3504.       3504.       3504.       3506.       3506.       3506.       3509.    
        3509.       3509.       3509.       3509.       3509.       3509.       3509.       3509.       3509.       3509.    
        3509.       3509.       3509.       3509.       3509.       3510.       3510.       3510.       3512.       3512.    
        3512.       3513.       3513.       3513.       3516.       3516.       3516.       3516.       3516.       3516.    
        3518.       3518.       3518.       3517.       3517.       3517.       3515.       3515.       3515.       3515.    
        3515.       3515.       3519.       3519.       3519.       3521.       3521.       3521.       3521.       3521.    
        3521.       3519.       3519.       3519.       3518.       3518.       3518.       3519.       3519.       3519.    
        3521.       3521.       3521.       3524.       3524.       3524.       3525.       3525.       3525.       3527.    
        3527.       3527.       3527.       3529.       3529.       3529.       3531.       3531.       3531.       3531.    
        3531.       3531.       3532.       3532.       3532.       3532.       3532.       3532.       3534.       3534.    
        3534.       3536.       3536.       3536.       3538.       3538.       3538.       3538.       3538.       3538.    
        3537.       3537.       3537.       3536.       3536.       3537.       3537.       3535.       3537.       3543.    
        3547.       3547.       3549.       3550.       3553.       3553.       3553.       3550.       3550.       3550.    
        3550.       3551.       3551.       3553.       3555.       3559.    
  59    3529.       3522.       3518.       3520.       3520.       3519.       3517.       3511.       3506.       3506.    
        3503.       3500.       3494.       3494.       3500.       3500.       3498.       3498.       3498.       3498.    
        3498.       3498.       3498.       3498.       3498.       3498.       3496.       3496.       3496.       3497.    
        3497.       3497.       3499.       3499.       3499.       3498.       3498.       3498.       3498.       3498.    
        3498.       3498.       3498.       3498.       3499.       3499.       3499.       3501.       3501.       3501.    
        3502.       3502.       3502.       3501.       3501.       3501.       3503.       3503.       3503.       3506.    
        3506.       3506.       3507.       3507.       3507.       3508.       3508.       3508.       3510.       3510.    
        3510.       3511.       3511.       3511.       3511.       3510.       3510.       3510.       3510.       3510.    
        3510.       3511.       3511.       3511.       3515.       3515.       3515.       3517.       3517.       3517.    
        3519.       3519.       3519.       3521.       3521.       3521.       3520.       3520.       3520.       3519.    
        3519.       3519.       3520.       3520.       3520.       3521.       3521.       3521.       3521.       3521.    
        3521.       3519.       3519.       3519.       3520.       3520.       3520.       3521.       3521.       3521.    
        3524.       3524.       3524.       3526.       3526.       3526.       3529.       3529.       3529.       3532.    
        3532.       3532.       3532.       3535.       3535.       3535.       3536.       3536.       3536.       3536.    
        3536.       3536.       3536.       3536.       3536.       3536.       3536.       3536.       3536.       3536.    
        3536.       3537.       3537.       3537.       3538.       3538.       3538.       3537.       3537.       3537.    
        3538.       3538.       3538.       3536.       3536.       3538.       3538.       3540.       3542.       3548.    
        3550.       3550.       3550.       3551.       3553.       3554.       3554.       3551.       3550.       3551.    
        3553.       3555.       3555.       3558.       3563.       3569.    
  60    3529.       3522.       3518.       3520.       3520.       3519.       3517.       3511.       3506.       3506.    
        3503.       3500.       3494.       3494.       3500.       3500.       3498.       3498.       3498.       3498.    
        3498.       3498.       3498.       3498.       3498.       3498.       3496.       3496.       3496.       3497.    
        3497.       3497.       3499.       3499.       3499.       3498.       3498.       3498.       3498.       3498.    
        3498.       3498.       3498.       3498.       3499.       3499.       3499.       3501.       3501.       3501.    
        3502.       3502.       3502.       3501.       3501.       3501.       3503.       3503.       3503.       3506.    
        3506.       3506.       3507.       3507.       3507.       3508.       3508.       3508.       3510.       3510.    
        3510.       3511.       3511.       3511.       3511.       3510.       3510.       3510.       3510.       3510.    
        3510.       3511.       3511.       3511.       3515.       3515.       3515.       3517.       3517.       3517.    
        3519.       3519.       3519.       3521.       3521.       3521.       3520.       3520.       3520.       3519.    
        3519.       3519.       3520.       3520.       3520.       3521.       3521.       3521.       3521.       3521.    
        3521.       3519.       3519.       3519.       3520.       3520.       3520.       3521.       3521.       3521.    
        3524.       3524.       3524.       3526.       3526.       3526.       3529.       3529.       3529.       3532.    
        3532.       3532.       3532.       3535.       3535.       3535.       3536.       3536.       3536.       3536.    
        3536.       3536.       3536.       3536.       3536.       3536.       3536.       3536.       3536.       3536.    
        3536.       3537.       3537.       3537.       3538.       3538.       3538.       3537.       3537.       3537.    
        3538.       3538.       3538.       3536.       3536.       3538.       3538.       3540.       3542.       3548.    
        3550.       3550.       3550.       3551.       3553.       3554.       3554.       3551.       3550.       3551.    
        3553.       3555.       3555.       3558.       3563.       3569.    
  61    3529.       3522.       3518.       3520.       3520.       3519.       3517.       3511.       3506.       3506.    
        3503.       3500.       3494.       3494.       3500.       3500.       3498.       3498.       3498.       3498.    
        3498.       3498.       3498.       3498.       3498.       3498.       3496.       3496.       3496.       3497.    
        3497.       3497.       3499.       3499.       3499.       3498.       3498.       3498.       3498.       3498.    
        3498.       3498.       3498.       3498.       3499.       3499.       3499.       3501.       3501.       3501.    
        3502.       3502.       3502.       3501.       3501.       3501.       3503.       3503.       3503.       3506.    
        3506.       3506.       3507.       3507.       3507.       3508.       3508.       3508.       3510.       3510.    
        3510.       3511.       3511.       3511.       3511.       3510.       3510.       3510.       3510.       3510.    
        3510.       3511.       3511.       3511.       3515.       3515.       3515.       3517.       3517.       3517.    
        3519.       3519.       3519.       3521.       3521.       3521.       3520.       3520.       3520.       3519.    
        3519.       3519.       3520.       3520.       3520.       3521.       3521.       3521.       3521.       3521.    
        3521.       3519.       3519.       3519.       3520.       3520.       3520.       3521.       3521.       3521.    
        3524.       3524.       3524.       3526.       3526.       3526.       3529.       3529.       3529.       3532.    
        3532.       3532.       3532.       3535.       3535.       3535.       3536.       3536.       3536.       3536.    
        3536.       3536.       3536.       3536.       3536.       3536.       3536.       3536.       3536.       3536.    
        3536.       3537.       3537.       3537.       3538.       3538.       3538.       3537.       3537.       3537.    
        3538.       3538.       3538.       3536.       3536.       3538.       3538.       3540.       3542.       3548.    
        3550.       3550.       3550.       3551.       3553.       3554.       3554.       3551.       3550.       3551.    
        3553.       3555.       3555.       3558.       3563.       3569.    
  62    3533.       3528.       3523.       3522.       3522.       3523.       3520.       3515.       3509.       3509.    
        3505.       3499.       3496.       3494.       3500.       3500.       3501.       3501.       3501.       3499.    
        3499.       3499.       3499.       3500.       3500.       3500.       3499.       3499.       3499.       3499.    
        3499.       3499.       3500.       3500.       3500.       3500.       3500.       3500.       3500.       3500.    
        3500.       3503.       3503.       3503.       3505.       3505.       3505.       3505.       3505.       3505.    
        3504.       3504.       3504.       3505.       3505.       3505.       3504.       3504.       3504.       3505.    
        3505.       3505.       3505.       3505.       3505.       3507.       3507.       3507.       3508.       3508.    
        3508.       3512.       3512.       3512.       3512.       3514.       3514.       3514.       3514.       3514.    
        3514.       3513.       3513.       3513.       3514.       3514.       3514.       3516.       3516.       3516.    
        3519.       3519.       3519.       3519.       3519.       3519.       3520.       3520.       3520.       3522.    
        3522.       3522.       3522.       3522.       3522.       3522.       3522.       3522.       3521.       3521.    
        3521.       3520.       3520.       3520.       3520.       3520.       3520.       3522.       3522.       3522.    
        3523.       3523.       3523.       3525.       3525.       3525.       3528.       3528.       3528.       3534.    
        3534.       3534.       3534.       3538.       3538.       3538.       3539.       3539.       3539.       3540.    
        3540.       3540.       3538.       3538.       3538.       3537.       3537.       3537.       3537.       3537.    
        3537.       3536.       3536.       3536.       3536.       3536.       3536.       3537.       3537.       3537.    
        3538.       3538.       3538.       3538.       3538.       3542.       3542.       3543.       3546.       3550.    
        3551.       3551.       3551.       3552.       3555.       3558.       3558.       3556.       3556.       3558.    
        3560.       3561.       3561.       3563.       3568.       3571.    
  63    3533.       3528.       3523.       3522.       3522.       3523.       3520.       3515.       3509.       3509.    
        3505.       3499.       3496.       3494.       3500.       3500.       3501.       3501.       3501.       3499.    
        3499.       3499.       3499.       3500.       3500.       3500.       3499.       3499.       3499.       3499.    
        3499.       3499.       3500.       3500.       3500.       3500.       3500.       3500.       3500.       3500.    
        3500.       3503.       3503.       3503.       3505.       3505.       3505.       3505.       3505.       3505.    
        3504.       3504.       3504.       3505.       3505.       3505.       3504.       3504.       3504.       3505.    
        3505.       3505.       3505.       3505.       3505.       3507.       3507.       3507.       3508.       3508.    
        3508.       3512.       3512.       3512.       3512.       3514.       3514.       3514.       3514.       3514.    
        3514.       3513.       3513.       3513.       3514.       3514.       3514.       3516.       3516.       3516.    
        3519.       3519.       3519.       3519.       3519.       3519.       3520.       3520.       3520.       3522.    
        3522.       3522.       3522.       3522.       3522.       3522.       3522.       3522.       3521.       3521.    
        3521.       3520.       3520.       3520.       3520.       3520.       3520.       3522.       3522.       3522.    
        3523.       3523.       3523.       3525.       3525.       3525.       3528.       3528.       3528.       3534.    
        3534.       3534.       3534.       3538.       3538.       3538.       3539.       3539.       3539.       3540.    
        3540.       3540.       3538.       3538.       3538.       3537.       3537.       3537.       3537.       3537.    
        3537.       3536.       3536.       3536.       3536.       3536.       3536.       3537.       3537.       3537.    
        3538.       3538.       3538.       3538.       3538.       3542.       3542.       3543.       3546.       3550.    
        3551.       3551.       3551.       3552.       3555.       3558.       3558.       3556.       3556.       3558.    
        3560.       3561.       3561.       3563.       3568.       3571.    
  64    3533.       3528.       3523.       3522.       3522.       3523.       3520.       3515.       3509.       3509.    
        3505.       3499.       3496.       3494.       3500.       3500.       3501.       3501.       3501.       3499.    
        3499.       3499.       3499.       3500.       3500.       3500.       3499.       3499.       3499.       3499.    
        3499.       3499.       3500.       3500.       3500.       3500.       3500.       3500.       3500.       3500.    
        3500.       3503.       3503.       3503.       3505.       3505.       3505.       3505.       3505.       3505.    
        3504.       3504.       3504.       3505.       3505.       3505.       3504.       3504.       3504.       3505.    
        3505.       3505.       3505.       3505.       3505.       3507.       3507.       3507.       3508.       3508.    
        3508.       3512.       3512.       3512.       3512.       3514.       3514.       3514.       3514.       3514.    
        3514.       3513.       3513.       3513.       3514.       3514.       3514.       3516.       3516.       3516.    
        3519.       3519.       3519.       3519.       3519.       3519.       3520.       3520.       3520.       3522.    
        3522.       3522.       3522.       3522.       3522.       3522.       3522.       3522.       3521.       3521.    
        3521.       3520.       3520.       3520.       3520.       3520.       3520.       3522.       3522.       3522.    
        3523.       3523.       3523.       3525.       3525.       3525.       3528.       3528.       3528.       3534.    
        3534.       3534.       3534.       3538.       3538.       3538.       3539.       3539.       3539.       3540.    
        3540.       3540.       3538.       3538.       3538.       3537.       3537.       3537.       3537.       3537.    
        3537.       3536.       3536.       3536.       3536.       3536.       3536.       3537.       3537.       3537.    
        3538.       3538.       3538.       3538.       3538.       3542.       3542.       3543.       3546.       3550.    
        3551.       3551.       3551.       3552.       3555.       3558.       3558.       3556.       3556.       3558.    
        3560.       3561.       3561.       3563.       3568.       3571.    
  65    3536.       3533.       3531.       3528.       3528.       3526.       3523.       3517.       3512.       3512.    
        3507.       3497.       3493.       3493.       3498.       3498.       3500.       3500.       3500.       3500.    
        3500.       3500.       3500.       3495.       3495.       3495.       3495.       3495.       3495.       3498.    
        3498.       3498.       3500.       3500.       3500.       3501.       3501.       3501.       3504.       3504.    
        3504.       3509.       3509.       3509.       3510.       3510.       3510.       3508.       3508.       3508.    
        3506.       3506.       3506.       3506.       3506.       3506.       3507.       3507.       3507.       3509.    
        3509.       3509.       3511.       3511.       3511.       3513.       3513.       3513.       3515.       3515.    
        3515.       3515.       3515.       3515.       3515.       3514.       3514.       3514.       3513.       3513.    
        3513.       3512.       3512.       3512.       3513.       3513.       3513.       3516.       3516.       3516.    
        3518.       3518.       3518.       3521.       3521.       3521.       3523.       3523.       3523.       3524.    
        3524.       3524.       3522.       3522.       3522.       3521.       3521.       3521.       3521.       3521.    
        3521.       3521.       3521.       3521.       3522.       3522.       3522.       3523.       3523.       3523.    
        3523.       3523.       3523.       3524.       3524.       3524.       3526.       3526.       3526.       3530.    
        3530.       3530.       3530.       3533.       3533.       3533.       3535.       3535.       3535.       3536.    
        3536.       3536.       3536.       3536.       3536.       3537.       3537.       3537.       3537.       3537.    
        3537.       3538.       3538.       3538.       3539.       3539.       3539.       3540.       3540.       3540.    
        3540.       3540.       3540.       3540.       3540.       3542.       3542.       3546.       3550.       3555.    
        3557.       3557.       3557.       3555.       3560.       3566.       3566.       3567.       3566.       3566.    
        3566.       3565.       3565.       3566.       3569.       3570.    
  66    3536.       3533.       3531.       3528.       3528.       3526.       3523.       3517.       3512.       3512.    
        3507.       3497.       3493.       3493.       3498.       3498.       3500.       3500.       3500.       3500.    
        3500.       3500.       3500.       3495.       3495.       3495.       3495.       3495.       3495.       3498.    
        3498.       3498.       3500.       3500.       3500.       3501.       3501.       3501.       3504.       3504.    
        3504.       3509.       3509.       3509.       3510.       3510.       3510.       3508.       3508.       3508.    
        3506.       3506.       3506.       3506.       3506.       3506.       3507.       3507.       3507.       3509.    
        3509.       3509.       3511.       3511.       3511.       3513.       3513.       3513.       3515.       3515.    
        3515.       3515.       3515.       3515.       3515.       3514.       3514.       3514.       3513.       3513.    
        3513.       3512.       3512.       3512.       3513.       3513.       3513.       3516.       3516.       3516.    
        3518.       3518.       3518.       3521.       3521.       3521.       3523.       3523.       3523.       3524.    
        3524.       3524.       3522.       3522.       3522.       3521.       3521.       3521.       3521.       3521.    
        3521.       3521.       3521.       3521.       3522.       3522.       3522.       3523.       3523.       3523.    
        3523.       3523.       3523.       3524.       3524.       3524.       3526.       3526.       3526.       3530.    
        3530.       3530.       3530.       3533.       3533.       3533.       3535.       3535.       3535.       3536.    
        3536.       3536.       3536.       3536.       3536.       3537.       3537.       3537.       3537.       3537.    
        3537.       3538.       3538.       3538.       3539.       3539.       3539.       3540.       3540.       3540.    
        3540.       3540.       3540.       3540.       3540.       3542.       3542.       3546.       3550.       3555.    
        3557.       3557.       3557.       3555.       3560.       3566.       3566.       3567.       3566.       3566.    
        3566.       3565.       3565.       3566.       3569.       3570.    
  67    3536.       3533.       3531.       3528.       3528.       3526.       3523.       3517.       3512.       3512.    
        3507.       3497.       3493.       3493.       3498.       3498.       3500.       3500.       3500.       3500.    
        3500.       3500.       3500.       3495.       3495.       3495.       3495.       3495.       3495.       3498.    
        3498.       3498.       3500.       3500.       3500.       3501.       3501.       3501.       3504.       3504.    
        3504.       3509.       3509.       3509.       3510.       3510.       3510.       3508.       3508.       3508.    
        3506.       3506.       3506.       3506.       3506.       3506.       3507.       3507.       3507.       3509.    
        3509.       3509.       3511.       3511.       3511.       3513.       3513.       3513.       3515.       3515.    
        3515.       3515.       3515.       3515.       3515.       3514.       3514.       3514.       3513.       3513.    
        3513.       3512.       3512.       3512.       3513.       3513.       3513.       3516.       3516.       3516.    
        3518.       3518.       3518.       3521.       3521.       3521.       3523.       3523.       3523.       3524.    
        3524.       3524.       3522.       3522.       3522.       3521.       3521.       3521.       3521.       3521.    
        3521.       3521.       3521.       3521.       3522.       3522.       3522.       3523.       3523.       3523.    
        3523.       3523.       3523.       3524.       3524.       3524.       3526.       3526.       3526.       3530.    
        3530.       3530.       3530.       3533.       3533.       3533.       3535.       3535.       3535.       3536.    
        3536.       3536.       3536.       3536.       3536.       3537.       3537.       3537.       3537.       3537.    
        3537.       3538.       3538.       3538.       3539.       3539.       3539.       3540.       3540.       3540.    
        3540.       3540.       3540.       3540.       3540.       3542.       3542.       3546.       3550.       3555.    
        3557.       3557.       3557.       3555.       3560.       3566.       3566.       3567.       3566.       3566.    
        3566.       3565.       3565.       3566.       3569.       3570.    
  68    3536.       3537.       3534.       3530.       3530.       3528.       3526.       3520.       3514.       3514.    
        3507.       3498.       3494.       3495.       3497.       3497.       3500.       3500.       3500.       3498.    
        3498.       3498.       3498.       3495.       3495.       3495.       3496.       3496.       3496.       3501.    
        3501.       3501.       3503.       3503.       3503.       3504.       3504.       3504.       3507.       3507.    
        3507.       3509.       3509.       3509.       3511.       3511.       3511.       3510.       3510.       3510.    
        3508.       3508.       3508.       3505.       3505.       3505.       3504.       3504.       3504.       3503.    
        3503.       3503.       3506.       3506.       3506.       3510.       3510.       3510.       3514.       3514.    
        3514.       3517.       3517.       3517.       3517.       3518.       3518.       3518.       3516.       3516.    
        3516.       3516.       3516.       3516.       3517.       3517.       3517.       3517.       3517.       3517.    
        3519.       3519.       3519.       3522.       3522.       3522.       3524.       3524.       3524.       3523.    
        3523.       3523.       3523.       3523.       3523.       3524.       3524.       3524.       3524.       3524.    
        3524.       3524.       3524.       3524.       3525.       3525.       3525.       3526.       3526.       3526.    
        3528.       3528.       3528.       3528.       3528.       3528.       3528.       3528.       3528.       3528.    
        3528.       3528.       3528.       3529.       3529.       3529.       3532.       3532.       3532.       3533.    
        3533.       3533.       3533.       3533.       3533.       3534.       3534.       3534.       3537.       3537.    
        3537.       3537.       3537.       3537.       3538.       3538.       3538.       3540.       3540.       3540.    
        3542.       3542.       3542.       3543.       3543.       3544.       3544.       3546.       3558.       3560.    
        3561.       3561.       3561.       3561.       3561.       3564.       3564.       3569.       3569.       3566.    
        3565.       3564.       3564.       3564.       3568.       3572.    
  69    3536.       3537.       3534.       3530.       3530.       3528.       3526.       3520.       3514.       3514.    
        3507.       3498.       3494.       3495.       3497.       3497.       3500.       3500.       3500.       3498.    
        3498.       3498.       3498.       3495.       3495.       3495.       3496.       3496.       3496.       3501.    
        3501.       3501.       3503.       3503.       3503.       3504.       3504.       3504.       3507.       3507.    
        3507.       3509.       3509.       3509.       3511.       3511.       3511.       3510.       3510.       3510.    
        3508.       3508.       3508.       3505.       3505.       3505.       3504.       3504.       3504.       3503.    
        3503.       3503.       3506.       3506.       3506.       3510.       3510.       3510.       3514.       3514.    
        3514.       3517.       3517.       3517.       3517.       3518.       3518.       3518.       3516.       3516.    
        3516.       3516.       3516.       3516.       3517.       3517.       3517.       3517.       3517.       3517.    
        3519.       3519.       3519.       3522.       3522.       3522.       3524.       3524.       3524.       3523.    
        3523.       3523.       3523.       3523.       3523.       3524.       3524.       3524.       3524.       3524.    
        3524.       3524.       3524.       3524.       3525.       3525.       3525.       3526.       3526.       3526.    
        3528.       3528.       3528.       3528.       3528.       3528.       3528.       3528.       3528.       3528.    
        3528.       3528.       3528.       3529.       3529.       3529.       3532.       3532.       3532.       3533.    
        3533.       3533.       3533.       3533.       3533.       3534.       3534.       3534.       3537.       3537.    
        3537.       3537.       3537.       3537.       3538.       3538.       3538.       3540.       3540.       3540.    
        3542.       3542.       3542.       3543.       3543.       3544.       3544.       3546.       3558.       3560.    
        3561.       3561.       3561.       3561.       3561.       3564.       3564.       3569.       3569.       3566.    
        3565.       3564.       3564.       3564.       3568.       3572.    
  70    3536.       3537.       3534.       3530.       3530.       3528.       3526.       3520.       3514.       3514.    
        3507.       3498.       3494.       3495.       3497.       3497.       3500.       3500.       3500.       3498.    
        3498.       3498.       3498.       3495.       3495.       3495.       3496.       3496.       3496.       3501.    
        3501.       3501.       3503.       3503.       3503.       3504.       3504.       3504.       3507.       3507.    
        3507.       3509.       3509.       3509.       3511.       3511.       3511.       3510.       3510.       3510.    
        3508.       3508.       3508.       3505.       3505.       3505.       3504.       3504.       3504.       3503.    
        3503.       3503.       3506.       3506.       3506.       3510.       3510.       3510.       3514.       3514.    
        3514.       3517.       3517.       3517.       3517.       3518.       3518.       3518.       3516.       3516.    
        3516.       3516.       3516.       3516.       3517.       3517.       3517.       3517.       3517.       3517.    
        3519.       3519.       3519.       3522.       3522.       3522.       3524.       3524.       3524.       3523.    
        3523.       3523.       3523.       3523.       3523.       3524.       3524.       3524.       3524.       3524.    
        3524.       3524.       3524.       3524.       3525.       3525.       3525.       3526.       3526.       3526.    
        3528.       3528.       3528.       3528.       3528.       3528.       3528.       3528.       3528.       3528.    
        3528.       3528.       3528.       3529.       3529.       3529.       3532.       3532.       3532.       3533.    
        3533.       3533.       3533.       3533.       3533.       3534.       3534.       3534.       3537.       3537.    
        3537.       3537.       3537.       3537.       3538.       3538.       3538.       3540.       3540.       3540.    
        3542.       3542.       3542.       3543.       3543.       3544.       3544.       3546.       3558.       3560.    
        3561.       3561.       3561.       3561.       3561.       3564.       3564.       3569.       3569.       3566.    
        3565.       3564.       3564.       3564.       3568.       3572.    
  71    3537.       3537.       3536.       3531.       3531.       3531.       3527.       3524.       3518.       3518.    
        3512.       3501.       3498.       3500.       3500.       3500.       3502.       3502.       3502.       3499.    
        3499.       3499.       3499.       3496.       3496.       3496.       3498.       3498.       3498.       3504.    
        3504.       3504.       3503.       3503.       3503.       3503.       3503.       3503.       3507.       3507.    
        3507.       3506.       3506.       3506.       3506.       3506.       3506.       3508.       3508.       3508.    
        3507.       3507.       3507.       3504.       3504.       3504.       3505.       3505.       3505.       3508.    
        3508.       3508.       3512.       3512.       3512.       3518.       3518.       3518.       3521.       3521.    
        3521.       3522.       3522.       3522.       3522.       3523.       3523.       3523.       3525.       3525.    
        3525.       3526.       3526.       3526.       3527.       3527.       3527.       3527.       3527.       3527.    
        3527.       3527.       3527.       3526.       3526.       3526.       3527.       3527.       3527.       3526.    
        3526.       3526.       3526.       3526.       3526.       3528.       3528.       3528.       3530.       3530.    
        3530.       3532.       3532.       3532.       3532.       3532.       3532.       3532.       3532.       3532.    
        3533.       3533.       3533.       3534.       3534.       3534.       3535.       3535.       3535.       3534.    
        3534.       3534.       3534.       3534.       3534.       3534.       3534.       3534.       3534.       3537.    
        3537.       3537.       3541.       3541.       3541.       3542.       3542.       3542.       3543.       3543.    
        3543.       3543.       3543.       3543.       3544.       3544.       3544.       3545.       3545.       3545.    
        3547.       3547.       3547.       3551.       3551.       3555.       3555.       3557.       3558.       3563.    
        3564.       3564.       3563.       3563.       3563.       3565.       3565.       3570.       3571.       3573.    
        3570.       3569.       3569.       3572.       3579.       3582.    
  72    3537.       3537.       3536.       3531.       3531.       3531.       3527.       3524.       3518.       3518.    
        3512.       3501.       3498.       3500.       3500.       3500.       3502.       3502.       3502.       3499.    
        3499.       3499.       3499.       3496.       3496.       3496.       3498.       3498.       3498.       3504.    
        3504.       3504.       3503.       3503.       3503.       3503.       3503.       3503.       3507.       3507.    
        3507.       3506.       3506.       3506.       3506.       3506.       3506.       3508.       3508.       3508.    
        3507.       3507.       3507.       3504.       3504.       3504.       3505.       3505.       3505.       3508.    
        3508.       3508.       3512.       3512.       3512.       3518.       3518.       3518.       3521.       3521.    
        3521.       3522.       3522.       3522.       3522.       3523.       3523.       3523.       3525.       3525.    
        3525.       3526.       3526.       3526.       3527.       3527.       3527.       3527.       3527.       3527.    
        3527.       3527.       3527.       3526.       3526.       3526.       3527.       3527.       3527.       3526.    
        3526.       3526.       3526.       3526.       3526.       3528.       3528.       3528.       3530.       3530.    
        3530.       3532.       3532.       3532.       3532.       3532.       3532.       3532.       3532.       3532.    
        3533.       3533.       3533.       3534.       3534.       3534.       3535.       3535.       3535.       3534.    
        3534.       3534.       3534.       3534.       3534.       3534.       3534.       3534.       3534.       3537.    
        3537.       3537.       3541.       3541.       3541.       3542.       3542.       3542.       3543.       3543.    
        3543.       3543.       3543.       3543.       3544.       3544.       3544.       3545.       3545.       3545.    
        3547.       3547.       3547.       3551.       3551.       3555.       3555.       3557.       3558.       3563.    
        3564.       3564.       3563.       3563.       3563.       3565.       3565.       3570.       3571.       3573.    
        3570.       3569.       3569.       3572.       3579.       3582.    
  73    3537.       3537.       3536.       3531.       3531.       3531.       3527.       3524.       3518.       3518.    
        3512.       3501.       3498.       3500.       3500.       3500.       3502.       3502.       3502.       3499.    
        3499.       3499.       3499.       3496.       3496.       3496.       3498.       3498.       3498.       3504.    
        3504.       3504.       3503.       3503.       3503.       3503.       3503.       3503.       3507.       3507.    
        3507.       3506.       3506.       3506.       3506.       3506.       3506.       3508.       3508.       3508.    
        3507.       3507.       3507.       3504.       3504.       3504.       3505.       3505.       3505.       3508.    
        3508.       3508.       3512.       3512.       3512.       3518.       3518.       3518.       3521.       3521.    
        3521.       3522.       3522.       3522.       3522.       3523.       3523.       3523.       3525.       3525.    
        3525.       3526.       3526.       3526.       3527.       3527.       3527.       3527.       3527.       3527.    
        3527.       3527.       3527.       3526.       3526.       3526.       3527.       3527.       3527.       3526.    
        3526.       3526.       3526.       3526.       3526.       3528.       3528.       3528.       3530.       3530.    
        3530.       3532.       3532.       3532.       3532.       3532.       3532.       3532.       3532.       3532.    
        3533.       3533.       3533.       3534.       3534.       3534.       3535.       3535.       3535.       3534.    
        3534.       3534.       3534.       3534.       3534.       3534.       3534.       3534.       3534.       3537.    
        3537.       3537.       3541.       3541.       3541.       3542.       3542.       3542.       3543.       3543.    
        3543.       3543.       3543.       3543.       3544.       3544.       3544.       3545.       3545.       3545.    
        3547.       3547.       3547.       3551.       3551.       3555.       3555.       3557.       3558.       3563.    
        3564.       3564.       3563.       3563.       3563.       3565.       3565.       3570.       3571.       3573.    
        3570.       3569.       3569.       3572.       3579.       3582.    
  74    3543.       3539.       3538.       3535.       3535.       3533.       3531.       3527.       3522.       3522.    
        3518.       3509.       3503.       3503.       3503.       3503.       3499.       3499.       3499.       3501.    
        3501.       3501.       3501.       3500.       3500.       3500.       3499.       3499.       3499.       3504.    
        3504.       3504.       3506.       3506.       3506.       3507.       3507.       3507.       3506.       3506.    
        3506.       3507.       3507.       3507.       3507.       3507.       3507.       3507.       3507.       3507.    
        3508.       3508.       3508.       3507.       3507.       3507.       3509.       3509.       3509.       3513.    
        3513.       3513.       3519.       3519.       3519.       3525.       3525.       3525.       3528.       3528.    
        3528.       3532.       3532.       3532.       3532.       3534.       3534.       3534.       3535.       3535.    
        3535.       3537.       3537.       3537.       3537.       3537.       3537.       3537.       3537.       3537.    
        3537.       3537.       3537.       3538.       3538.       3538.       3538.       3538.       3538.       3540.    
        3540.       3540.       3539.       3539.       3539.       3541.       3541.       3541.       3540.       3540.    
        3540.       3541.       3541.       3541.       3541.       3541.       3541.       3542.       3542.       3542.    
        3542.       3542.       3542.       3545.       3545.       3545.       3547.       3547.       3547.       3546.    
        3546.       3546.       3546.       3545.       3545.       3545.       3545.       3545.       3545.       3547.    
        3547.       3547.       3551.       3551.       3551.       3553.       3553.       3553.       3553.       3553.    
        3553.       3552.       3552.       3552.       3553.       3553.       3553.       3554.       3554.       3554.    
        3554.       3554.       3554.       3555.       3555.       3559.       3559.       3563.       3562.       3563.    
        3568.       3568.       3569.       3570.       3570.       3570.       3570.       3570.       3571.       3572.    
        3573.       3573.       3573.       3576.       3580.       3582.    
  75    3543.       3539.       3538.       3535.       3535.       3533.       3531.       3527.       3522.       3522.    
        3518.       3509.       3503.       3503.       3503.       3503.       3499.       3499.       3499.       3501.    
        3501.       3501.       3501.       3500.       3500.       3500.       3499.       3499.       3499.       3504.    
        3504.       3504.       3506.       3506.       3506.       3507.       3507.       3507.       3506.       3506.    
        3506.       3507.       3507.       3507.       3507.       3507.       3507.       3507.       3507.       3507.    
        3508.       3508.       3508.       3507.       3507.       3507.       3509.       3509.       3509.       3513.    
        3513.       3513.       3519.       3519.       3519.       3525.       3525.       3525.       3528.       3528.    
        3528.       3532.       3532.       3532.       3532.       3534.       3534.       3534.       3535.       3535.    
        3535.       3537.       3537.       3537.       3537.       3537.       3537.       3537.       3537.       3537.    
        3537.       3537.       3537.       3538.       3538.       3538.       3538.       3538.       3538.       3540.    
        3540.       3540.       3539.       3539.       3539.       3541.       3541.       3541.       3540.       3540.    
        3540.       3541.       3541.       3541.       3541.       3541.       3541.       3542.       3542.       3542.    
        3542.       3542.       3542.       3545.       3545.       3545.       3547.       3547.       3547.       3546.    
        3546.       3546.       3546.       3545.       3545.       3545.       3545.       3545.       3545.       3547.    
        3547.       3547.       3551.       3551.       3551.       3553.       3553.       3553.       3553.       3553.    
        3553.       3552.       3552.       3552.       3553.       3553.       3553.       3554.       3554.       3554.    
        3554.       3554.       3554.       3555.       3555.       3559.       3559.       3563.       3562.       3563.    
        3568.       3568.       3569.       3570.       3570.       3570.       3570.       3570.       3571.       3572.    
        3573.       3573.       3573.       3576.       3580.       3582.    
  76    3547.       3545.       3541.       3538.       3538.       3535.       3533.       3530.       3525.       3525.    
        3520.       3514.       3508.       3505.       3503.       3503.       3495.       3495.       3495.       3500.    
        3500.       3500.       3500.       3500.       3500.       3500.       3501.       3501.       3501.       3502.    
        3502.       3502.       3504.       3504.       3504.       3504.       3504.       3504.       3506.       3506.    
        3506.       3509.       3509.       3509.       3509.       3509.       3509.       3509.       3509.       3509.    
        3509.       3509.       3509.       3511.       3511.       3511.       3514.       3514.       3514.       3520.    
        3520.       3520.       3527.       3527.       3527.       3532.       3532.       3532.       3533.       3533.    
        3533.       3535.       3535.       3535.       3535.       3538.       3538.       3538.       3539.       3539.    
        3539.       3538.       3538.       3538.       3539.       3539.       3539.       3542.       3542.       3542.    
        3543.       3543.       3543.       3543.       3543.       3543.       3543.       3543.       3543.       3545.    
        3545.       3545.       3547.       3547.       3547.       3547.       3547.       3547.       3546.       3546.    
        3546.       3545.       3545.       3545.       3547.       3547.       3547.       3547.       3547.       3547.    
        3548.       3548.       3548.       3550.       3550.       3550.       3552.       3552.       3552.       3551.    
        3551.       3551.       3551.       3551.       3551.       3551.       3552.       3552.       3552.       3552.    
        3552.       3552.       3554.       3554.       3554.       3556.       3556.       3556.       3559.       3559.    
        3559.       3559.       3559.       3559.       3560.       3560.       3560.       3561.       3561.       3561.    
        3560.       3560.       3560.       3559.       3559.       3560.       3560.       3564.       3565.       3567.    
        3568.       3568.       3575.       3577.       3576.       3575.       3575.       3574.       3573.       3574.    
        3575.       3576.       3576.       3579.       3583.       3583.    
  77    3547.       3545.       3541.       3538.       3538.       3535.       3533.       3530.       3525.       3525.    
        3520.       3514.       3508.       3505.       3503.       3503.       3495.       3495.       3495.       3500.    
        3500.       3500.       3500.       3500.       3500.       3500.       3501.       3501.       3501.       3502.    
        3502.       3502.       3504.       3504.       3504.       3504.       3504.       3504.       3506.       3506.    
        3506.       3509.       3509.       3509.       3509.       3509.       3509.       3509.       3509.       3509.    
        3509.       3509.       3509.       3511.       3511.       3511.       3514.       3514.       3514.       3520.    
        3520.       3520.       3527.       3527.       3527.       3532.       3532.       3532.       3533.       3533.    
        3533.       3535.       3535.       3535.       3535.       3538.       3538.       3538.       3539.       3539.    
        3539.       3538.       3538.       3538.       3539.       3539.       3539.       3542.       3542.       3542.    
        3543.       3543.       3543.       3543.       3543.       3543.       3543.       3543.       3543.       3545.    
        3545.       3545.       3547.       3547.       3547.       3547.       3547.       3547.       3546.       3546.    
        3546.       3545.       3545.       3545.       3547.       3547.       3547.       3547.       3547.       3547.    
        3548.       3548.       3548.       3550.       3550.       3550.       3552.       3552.       3552.       3551.    
        3551.       3551.       3551.       3551.       3551.       3551.       3552.       3552.       3552.       3552.    
        3552.       3552.       3554.       3554.       3554.       3556.       3556.       3556.       3559.       3559.    
        3559.       3559.       3559.       3559.       3560.       3560.       3560.       3561.       3561.       3561.    
        3560.       3560.       3560.       3559.       3559.       3560.       3560.       3564.       3565.       3567.    
        3568.       3568.       3575.       3577.       3576.       3575.       3575.       3574.       3573.       3574.    
        3575.       3576.       3576.       3579.       3583.       3583.    
  78    3546.       3543.       3539.       3537.       3537.       3536.       3531.       3528.       3525.       3525.    
        3521.       3517.       3509.       3507.       3508.       3508.       3504.       3504.       3504.       3501.    
        3501.       3501.       3501.       3499.       3499.       3499.       3500.       3500.       3500.       3505.    
        3505.       3505.       3504.       3504.       3504.       3503.       3503.       3503.       3506.       3506.    
        3506.       3511.       3511.       3511.       3512.       3512.       3512.       3512.       3512.       3512.    
        3510.       3510.       3510.       3514.       3514.       3514.       3518.       3518.       3518.       3524.    
        3524.       3524.       3529.       3529.       3529.       3535.       3535.       3535.       3536.       3536.    
        3536.       3536.       3536.       3536.       3536.       3537.       3537.       3537.       3540.       3540.    
        3540.       3540.       3540.       3540.       3542.       3542.       3542.       3543.       3543.       3543.    
        3540.       3540.       3540.       3540.       3540.       3540.       3543.       3543.       3543.       3545.    
        3545.       3545.       3549.       3549.       3549.       3551.       3551.       3551.       3549.       3549.    
        3549.       3547.       3547.       3547.       3546.       3546.       3546.       3548.       3548.       3548.    
        3550.       3550.       3550.       3552.       3552.       3552.       3552.       3552.       3552.       3552.    
        3552.       3552.       3552.       3553.       3553.       3553.       3554.       3554.       3554.       3555.    
        3555.       3555.       3557.       3557.       3557.       3561.       3561.       3561.       3562.       3562.    
        3562.       3562.       3562.       3562.       3563.       3563.       3563.       3563.       3563.       3563.    
        3563.       3563.       3563.       3564.       3564.       3565.       3565.       3569.       3574.       3574.    
        3575.       3575.       3575.       3580.       3578.       3579.       3579.       3577.       3577.       3580.    
        3583.       3586.       3586.       3588.       3588.       3589.    
  79    3546.       3543.       3540.       3540.       3540.       3540.       3537.       3530.       3526.       3526.    
        3523.       3519.       3512.       3508.       3504.       3504.       3498.       3498.       3498.       3497.    
        3497.       3497.       3497.       3500.       3500.       3500.       3500.       3500.       3500.       3498.    
        3498.       3498.       3500.       3500.       3500.       3501.       3501.       3501.       3504.       3504.    
        3504.       3510.       3510.       3510.       3513.       3513.       3513.       3511.       3511.       3511.    
        3510.       3510.       3510.       3516.       3516.       3516.       3523.       3523.       3523.       3526.    
        3526.       3526.       3530.       3530.       3530.       3536.       3536.       3536.       3539.       3539.    
        3539.       3538.       3538.       3538.       3538.       3537.       3537.       3537.       3539.       3539.    
        3539.       3541.       3541.       3541.       3543.       3543.       3543.       3544.       3544.       3544.    
        3542.       3542.       3542.       3544.       3544.       3544.       3548.       3548.       3548.       3552.    
        3552.       3552.       3554.       3554.       3554.       3557.       3557.       3557.       3558.       3558.    
        3558.       3557.       3557.       3557.       3555.       3555.       3555.       3557.       3557.       3557.    
        3556.       3556.       3556.       3555.       3555.       3555.       3555.       3555.       3555.       3556.    
        3556.       3556.       3556.       3559.       3559.       3559.       3559.       3559.       3559.       3560.    
        3560.       3560.       3562.       3562.       3562.       3566.       3566.       3566.       3566.       3566.    
        3566.       3565.       3565.       3565.       3564.       3564.       3564.       3562.       3562.       3562.    
        3562.       3562.       3562.       3564.       3564.       3569.       3569.       3576.       3579.       3578.    
        3578.       3578.       3580.       3582.       3582.       3583.       3583.       3583.       3580.       3583.    
        3584.       3586.       3586.       3588.       3588.       3587.    
  80    3550.       3548.       3544.       3543.       3543.       3541.       3539.       3531.       3527.       3527.    
        3524.       3520.       3515.       3507.       3499.       3499.       3494.       3494.       3494.       3493.    
        3493.       3493.       3493.       3497.       3497.       3497.       3499.       3499.       3499.       3500.    
        3500.       3500.       3503.       3503.       3503.       3504.       3504.       3504.       3504.       3504.    
        3504.       3506.       3506.       3506.       3509.       3509.       3509.       3508.       3508.       3508.    
        3509.       3509.       3509.       3516.       3516.       3516.       3525.       3525.       3525.       3527.    
        3527.       3527.       3530.       3530.       3530.       3533.       3533.       3533.       3536.       3536.    
        3536.       3536.       3536.       3536.       3536.       3538.       3538.       3538.       3540.       3540.    
        3540.       3540.       3540.       3540.       3542.       3542.       3542.       3544.       3544.       3544.    
        3548.       3548.       3548.       3547.       3547.       3547.       3553.       3553.       3553.       3556.    
        3556.       3556.       3558.       3558.       3558.       3560.       3560.       3560.       3564.       3564.    
        3564.       3565.       3565.       3565.       3563.       3563.       3563.       3562.       3562.       3562.    
        3560.       3560.       3560.       3557.       3557.       3557.       3556.       3556.       3556.       3559.    
        3559.       3559.       3559.       3564.       3564.       3564.       3567.       3567.       3567.       3568.    
        3568.       3568.       3570.       3570.       3570.       3571.       3571.       3571.       3571.       3571.    
        3571.       3570.       3570.       3570.       3570.       3570.       3570.       3568.       3568.       3568.    
        3570.       3570.       3570.       3572.       3572.       3575.       3575.       3579.       3581.       3580.    
        3582.       3582.       3583.       3582.       3581.       3583.       3583.       3582.       3582.       3582.    
        3584.       3587.       3587.       3589.       3589.       3588.    
  81    3554.       3553.       3548.       3543.       3543.       3540.       3537.       3532.       3528.       3528.    
        3527.       3523.       3517.       3509.       3499.       3499.       3495.       3495.       3495.       3496.    
        3496.       3496.       3496.       3495.       3495.       3495.       3500.       3500.       3500.       3503.    
        3503.       3503.       3503.       3503.       3503.       3504.       3504.       3504.       3505.       3505.    
        3505.       3507.       3507.       3507.       3508.       3508.       3508.       3508.       3508.       3508.    
        3511.       3511.       3511.       3517.       3517.       3517.       3524.       3524.       3524.       3524.    
        3524.       3524.       3526.       3526.       3526.       3530.       3530.       3530.       3533.       3533.    
        3533.       3536.       3536.       3536.       3536.       3539.       3539.       3539.       3542.       3542.    
        3542.       3542.       3542.       3542.       3542.       3542.       3542.       3546.       3546.       3546.    
        3551.       3551.       3551.       3554.       3554.       3554.       3556.       3556.       3556.       3557.    
        3557.       3557.       3560.       3560.       3560.       3565.       3565.       3565.       3569.       3569.    
        3569.       3572.       3572.       3572.       3571.       3571.       3571.       3566.       3566.       3566.    
        3566.       3566.       3566.       3566.       3566.       3566.       3569.       3569.       3569.       3571.    
        3571.       3571.       3571.       3575.       3575.       3575.       3576.       3576.       3576.       3574.    
        3574.       3574.       3573.       3573.       3573.       3574.       3574.       3574.       3578.       3578.    
        3578.       3581.       3581.       3581.       3582.       3582.       3582.       3581.       3581.       3581.    
        3579.       3579.       3579.       3578.       3578.       3577.       3577.       3579.       3580.       3580.    
        3580.       3580.       3580.       3580.       3581.       3587.       3587.       3590.       3592.       3590.    
        3589.       3592.       3592.       3594.       3595.       3596.    
  82    3554.       3553.       3548.       3543.       3543.       3540.       3537.       3532.       3528.       3528.    
        3527.       3523.       3517.       3509.       3499.       3499.       3495.       3495.       3495.       3496.    
        3496.       3496.       3496.       3495.       3495.       3495.       3500.       3500.       3500.       3503.    
        3503.       3503.       3503.       3503.       3503.       3504.       3504.       3504.       3505.       3505.    
        3505.       3507.       3507.       3507.       3508.       3508.       3508.       3508.       3508.       3508.    
        3511.       3511.       3511.       3517.       3517.       3517.       3524.       3524.       3524.       3524.    
        3524.       3524.       3526.       3526.       3526.       3530.       3530.       3530.       3533.       3533.    
        3533.       3536.       3536.       3536.       3536.       3539.       3539.       3539.       3542.       3542.    
        3542.       3542.       3542.       3542.       3542.       3542.       3542.       3546.       3546.       3546.    
        3551.       3551.       3551.       3554.       3554.       3554.       3556.       3556.       3559.       3557.    
        3557.       3557.       3560.       3560.       3560.       3565.       3565.       3565.       3569.       3569.    
        3569.       3572.       3572.       3572.       3571.       3571.       3571.       3566.       3566.       3566.    
        3566.       3566.       3566.       3566.       3566.       3566.       3569.       3569.       3584.       3571.    
        3571.       3571.       3571.       3575.       3575.       3575.       3576.       3576.       3576.       3574.    
        3574.       3574.       3573.       3573.       3573.       3574.       3574.       3574.       3578.       3578.    
        3578.       3581.       3581.       3581.       3582.       3582.       3582.       3580.       3581.       3581.    
        3579.       3579.       3579.       3578.       3578.       3577.       3577.       3579.       3580.       3580.    
        3580.       3580.       3580.       3580.       3581.       3587.       3587.       3590.       3592.       3590.    
        3589.       3592.       3592.       3594.       3595.       3596.    
  83    3553.       3551.       3547.       3543.       3543.       3539.       3536.       3532.       3529.       3529.    
        3528.       3525.       3520.       3509.       3502.       3502.       3495.       3495.       3495.       3492.    
        3492.       3492.       3492.       3496.       3496.       3496.       3501.       3501.       3501.       3502.    
        3502.       3502.       3505.       3505.       3505.       3506.       3506.       3506.       3507.       3507.    
        3507.       3509.       3509.       3509.       3510.       3510.       3510.       3511.       3511.       3511.    
        3512.       3512.       3512.       3517.       3517.       3517.       3524.       3524.       3524.       3526.    
        3526.       3526.       3524.       3524.       3524.       3525.       3525.       3525.       3529.       3529.    
        3529.       3533.       3533.       3533.       3533.       3537.       3537.       3537.       3540.       3540.    
        3540.       3542.       3542.       3542.       3545.       3545.       3545.       3550.       3550.       3550.    
        3555.       3555.       3555.       3558.       3558.       3558.       3559.       3559.       3559.       3559.    
        3559.       3559.       3560.       3560.       3560.       3566.       3566.       3566.       3571.       3571.    
        3571.       3574.       3574.       3574.       3576.       3576.       3576.       3575.       3575.       3575.    
        3575.       3575.       3575.       3580.       3580.       3580.       3584.       3584.       3584.       3587.    
        3587.       3587.       3587.       3585.       3585.       3585.       3582.       3582.       3582.       3580.    
        3580.       3580.       3578.       3578.       3578.       3581.       3581.       3581.       3584.       3584.    
        3584.       3582.       3582.       3582.       3581.       3581.       3581.       3580.       3580.       3580.    
        3578.       3578.       3578.       3578.       3578.       3579.       3579.       3579.       3580.       3579.    
        3580.       3580.       3580.       3581.       3585.       3587.       3587.       3599.       3603.       3606.    
        3606.       3607.       3607.       3609.       3611.       3611.    
  84    3552.       3549.       3545.       3541.       3541.       3538.       3534.       3532.       3528.       3528.    
        3526.       3522.       3518.       3512.       3503.       3503.       3495.       3495.       3495.       3495.    
        3495.       3495.       3495.       3498.       3498.       3498.       3501.       3501.       3501.       3502.    
        3502.       3502.       3503.       3503.       3503.       3504.       3504.       3504.       3506.       3506.    
        3506.       3510.       3510.       3510.       3511.       3511.       3511.       3512.       3512.       3512.    
        3511.       3511.       3511.       3518.       3518.       3518.       3531.       3531.       3531.       3534.    
        3534.       3534.       3529.       3529.       3529.       3525.       3525.       3525.       3526.       3526.    
        3526.       3531.       3531.       3531.       3531.       3534.       3534.       3534.       3537.       3537.    
        3537.       3538.       3538.       3538.       3542.       3542.       3542.       3548.       3548.       3548.    
        3556.       3556.       3556.       3557.       3557.       3557.       3557.       3557.       3557.       3558.    
        3558.       3558.       3560.       3560.       3560.       3565.       3565.       3565.       3570.       3570.    
        3570.       3576.       3576.       3576.       3578.       3578.       3578.       3578.       3578.       3578.    
        3577.       3577.       3577.       3579.       3579.       3579.       3581.       3581.       3581.       3583.    
        3583.       3583.       3583.       3585.       3585.       3585.       3588.       3588.       3588.       3588.    
        3588.       3588.       3588.       3588.       3588.       3589.       3589.       3589.       3591.       3591.    
        3591.       3592.       3592.       3592.       3588.       3588.       3588.       3583.       3583.       3583.    
        3580.       3580.       3580.       3579.       3579.       3578.       3578.       3578.       3581.       3583.    
        3584.       3584.       3585.       3588.       3593.       3598.       3598.       3599.       3608.       3608.    
        3610.       3613.       3613.       3615.       3613.       3612.    
  85    3552.       3550.       3546.       3542.       3542.       3538.       3534.       3531.       3528.       3528.    
        3526.       3522.       3516.       3510.       3504.       3504.       3497.       3497.       3497.       3498.    
        3498.       3498.       3498.       3504.       3504.       3504.       3500.       3500.       3500.       3499.    
        3499.       3499.       3500.       3500.       3500.       3502.       3502.       3502.       3506.       3506.    
        3506.       3511.       3511.       3511.       3511.       3511.       3511.       3510.       3510.       3510.    
        3513.       3513.       3513.       3519.       3519.       3519.       3533.       3533.       3533.       3536.    
        3536.       3536.       3539.       3539.       3539.       3532.       3532.       3532.       3530.       3530.    
        3530.       3534.       3534.       3534.       3534.       3536.       3536.       3536.       3536.       3536.    
        3536.       3536.       3536.       3536.       3540.       3540.       3540.       3545.       3545.       3545.    
        3552.       3552.       3552.       3558.       3558.       3558.       3557.       3557.       3557.       3557.    
        3557.       3557.       3562.       3562.       3562.       3568.       3568.       3568.       3572.       3572.    
        3572.       3574.       3574.       3574.       3577.       3577.       3577.       3582.       3582.       3582.    
        3584.       3584.       3584.       3583.       3583.       3583.       3583.       3583.       3583.       3586.    
        3586.       3586.       3586.       3589.       3589.       3589.       3592.       3592.       3592.       3593.    
        3593.       3593.       3593.       3593.       3593.       3594.       3594.       3594.       3600.       3600.    
        3600.       3601.       3601.       3601.       3600.       3600.       3600.       3594.       3594.       3594.    
        3589.       3589.       3589.       3588.       3588.       3587.       3587.       3586.       3588.       3589.    
        3589.       3589.       3592.       3596.       3600.       3605.       3605.       3608.       3608.       3613.    
        3612.       3614.       3614.       3616.       3618.       3617.    
  86    3557.       3550.       3546.       3544.       3544.       3541.       3536.       3531.       3526.       3526.    
        3521.       3516.       3510.       3505.       3501.       3501.       3501.       3501.       3501.       3505.    
        3505.       3505.       3505.       3505.       3505.       3505.       3503.       3503.       3503.       3499.    
        3499.       3499.       3500.       3500.       3500.       3503.       3503.       3503.       3507.       3507.    
        3507.       3509.       3509.       3509.       3509.       3509.       3509.       3508.       3508.       3508.    
        3512.       3512.       3512.       3517.       3517.       3517.       3530.       3530.       3530.       3545.    
        3545.       3545.       3546.       3546.       3546.       3541.       3541.       3541.       3536.       3536.    
        3536.       3538.       3538.       3538.       3538.       3537.       3537.       3537.       3538.       3538.    
        3538.       3540.       3540.       3540.       3541.       3541.       3541.       3543.       3543.       3543.    
        3547.       3547.       3547.       3553.       3553.       3553.       3558.       3558.       3558.       3561.    
        3561.       3561.       3569.       3569.       3569.       3577.       3577.       3577.       3579.       3579.    
        3579.       3578.       3578.       3578.       3581.       3581.       3581.       3585.       3585.       3585.    
        3587.       3587.       3587.       3588.       3588.       3588.       3589.       3589.       3589.       3591.    
        3591.       3591.       3591.       3593.       3593.       3593.       3595.       3595.       3595.       3594.    
        3594.       3594.       3594.       3594.       3594.       3597.       3597.       3597.       3600.       3600.    
        3600.       3600.       3600.       3600.       3602.       3602.       3602.       3603.       3603.       3603.    
        3599.       3599.       3599.       3596.       3596.       3593.       3593.       3592.       3593.       3596.    
        3597.       3597.       3599.       3601.       3601.       3603.       3603.       3609.       3612.       3613.    
        3612.       3614.       3614.       3616.       3617.       3617.    
  87    3557.       3550.       3546.       3544.       3544.       3541.       3536.       3531.       3526.       3526.    
        3521.       3516.       3510.       3505.       3501.       3501.       3501.       3501.       3501.       3505.    
        3505.       3505.       3505.       3505.       3505.       3505.       3503.       3503.       3503.       3499.    
        3499.       3499.       3500.       3500.       3500.       3503.       3503.       3503.       3507.       3507.    
        3507.       3509.       3509.       3509.       3509.       3509.       3509.       3508.       3508.       3508.    
        3512.       3512.       3512.       3517.       3517.       3517.       3530.       3530.       3530.       3545.    
        3545.       3545.       3546.       3546.       3546.       3541.       3541.       3541.       3536.       3536.    
        3536.       3538.       3538.       3538.       3538.       3537.       3537.       3537.       3538.       3538.    
        3538.       3540.       3540.       3540.       3541.       3541.       3541.       3543.       3543.       3543.    
        3547.       3547.       3547.       3553.       3553.       3553.       3558.       3558.       3558.       3561.    
        3561.       3561.       3569.       3569.       3569.       3577.       3577.       3577.       3579.       3579.    
        3579.       3578.       3578.       3578.       3581.       3581.       3581.       3585.       3585.       3585.    
        3587.       3587.       3587.       3588.       3588.       3588.       3589.       3589.       3589.       3591.    
        3591.       3591.       3591.       3593.       3593.       3593.       3595.       3595.       3595.       3594.    
        3594.       3594.       3594.       3594.       3594.       3597.       3597.       3597.       3600.       3600.    
        3600.       3600.       3600.       3600.       3602.       3602.       3602.       3603.       3603.       3603.    
        3599.       3599.       3599.       3596.       3596.       3593.       3593.       3592.       3593.       3596.    
        3597.       3597.       3599.       3601.       3601.       3603.       3603.       3609.       3612.       3613.    
        3612.       3614.       3614.       3616.       3617.       3617.    
  88    3560.       3553.       3549.       3546.       3546.       3543.       3538.       3532.       3526.       3526.    
        3520.       3516.       3508.       3505.       3506.       3506.       3500.       3500.       3500.       3504.    
        3504.       3504.       3504.       3507.       3507.       3507.       3505.       3505.       3505.       3501.    
        3501.       3501.       3502.       3502.       3502.       3505.       3505.       3505.       3506.       3506.    
        3506.       3511.       3511.       3511.       3510.       3510.       3510.       3511.       3511.       3511.    
        3513.       3513.       3513.       3518.       3518.       3518.       3531.       3531.       3531.       3545.    
        3545.       3545.       3546.       3546.       3546.       3541.       3541.       3541.       3541.       3541.    
        3541.       3540.       3540.       3540.       3540.       3537.       3537.       3537.       3537.       3537.    
        3537.       3538.       3538.       3538.       3540.       3540.       3540.       3541.       3541.       3541.    
        3542.       3542.       3542.       3545.       3545.       3545.       3551.       3551.       3551.       3561.    
        3561.       3561.       3571.       3571.       3571.       3578.       3578.       3578.       3581.       3581.    
        3581.       3582.       3582.       3582.       3584.       3584.       3584.       3585.       3585.       3585.    
        3585.       3585.       3585.       3586.       3586.       3586.       3587.       3587.       3587.       3588.    
        3588.       3588.       3588.       3589.       3589.       3589.       3593.       3593.       3593.       3596.    
        3596.       3596.       3596.       3596.       3596.       3598.       3598.       3598.       3598.       3598.    
        3598.       3600.       3600.       3600.       3602.       3602.       3602.       3605.       3605.       3605.    
        3605.       3605.       3605.       3603.       3603.       3602.       3602.       3597.       3595.       3596.    
        3598.       3598.       3601.       3603.       3603.       3603.       3603.       3606.       3609.       3611.    
        3616.       3619.       3619.       3620.       3618.       3618.    
  89    3559.       3553.       3548.       3543.       3543.       3540.       3536.       3531.       3525.       3525.    
        3519.       3514.       3512.       3507.       3508.       3508.       3506.       3506.       3506.       3508.    
        3508.       3508.       3508.       3502.       3502.       3502.       3502.       3502.       3502.       3502.    
        3502.       3502.       3504.       3504.       3504.       3504.       3504.       3504.       3507.       3507.    
        3507.       3509.       3509.       3509.       3517.       3517.       3517.       3518.       3518.       3518.    
        3517.       3517.       3517.       3521.       3521.       3521.       3529.       3529.       3529.       3543.    
        3543.       3543.       3546.       3546.       3546.       3547.       3547.       3547.       3546.       3546.    
        3546.       3543.       3543.       3543.       3543.       3539.       3539.       3539.       3539.       3539.    
        3539.       3538.       3538.       3538.       3537.       3537.       3537.       3538.       3538.       3538.    
        3540.       3540.       3540.       3546.       3546.       3546.       3551.       3551.       3551.       3556.    
        3556.       3556.       3566.       3566.       3566.       3576.       3576.       3576.       3581.       3581.    
        3581.       3581.       3581.       3581.       3586.       3586.       3586.       3586.       3586.       3586.    
        3584.       3584.       3584.       3583.       3583.       3583.       3584.       3584.       3584.       3586.    
        3586.       3586.       3586.       3591.       3591.       3591.       3594.       3594.       3594.       3596.    
        3596.       3596.       3597.       3597.       3597.       3598.       3598.       3598.       3599.       3599.    
        3599.       3603.       3603.       3603.       3603.       3603.       3603.       3607.       3607.       3607.    
        3611.       3611.       3611.       3608.       3608.       3605.       3605.       3603.       3602.       3602.    
        3599.       3599.       3599.       3601.       3603.       3605.       3605.       3609.       3612.       3616.    
        3616.       3621.       3621.       3625.       3622.       3622.    



                       INITIAL HEAD FOR LAYER   4
 READING ON UNIT   13 WITH FORMAT: (FREE)              

            1           2           3           4           5           6           7           8           9          10
           11          12          13          14          15          16          17          18          19          20
           21          22          23          24          25          26          27          28          29          30
           31          32          33          34          35          36          37          38          39          40
           41          42          43          44          45          46          47          48          49          50
           51          52          53          54          55          56          57          58          59          60
           61          62          63          64          65          66          67          68          69          70
           71          72          73          74          75          76          77          78          79          80
           81          82          83          84          85          86          87          88          89          90
           91          92          93          94          95          96          97          98          99         100
          101         102         103         104         105         106         107         108         109         110
          111         112         113         114         115         116         117         118         119         120
          121         122         123         124         125         126         127         128         129         130
          131         132         133         134         135         136         137         138         139         140
          141         142         143         144         145         146         147         148         149         150
          151         152         153         154         155         156         157         158         159         160
          161         162         163         164         165         166         167         168         169         170
          171         172         173         174         175         176         177         178         179         180
          181         182         183         184         185         186
 ........................................................................................................................
   1    3478.       3484.       3487.       3485.       3485.       3480.       3484.       3483.       3483.       3483.    
        3479.       3477.       3479.       3485.       3492.       3492.       3496.       3496.       3496.       3501.    
        3501.       3501.       3501.       3502.       3502.       3502.       3513.       3513.       3513.       3521.    
        3521.       3521.       3531.       3531.       3531.       3528.       3528.       3528.       3529.       3529.    
        3529.       3531.       3531.       3531.       3530.       3530.       3530.       3530.       3530.       3530.    
        3529.       3529.       3529.       3530.       3530.       3530.       3531.       3531.       3531.       3532.    
        3532.       3532.       3532.       3532.       3532.       3534.       3534.       3534.       3535.       3535.    
        3535.       3535.       3535.       3535.       3535.       3535.       3535.       3535.       3538.       3538.    
        3538.       3538.       3538.       3538.       3540.       3540.       3540.       3539.       3539.       3539.    
        3538.       3538.       3538.       3541.       3541.       3541.       3545.       3545.       3545.       3552.    
        3552.       3552.       3556.       3556.       3556.       3562.       3562.       3562.       3569.       3569.    
        3569.       3575.       3575.       3575.       3583.       3583.       3583.       3589.       3589.       3589.    
        3591.       3591.       3591.       3592.       3592.       3592.       3592.       3592.       3592.       3592.    
        3592.       3592.       3592.       3590.       3590.       3590.       3591.       3591.       3591.       3595.    
        3595.       3595.       3595.       3595.       3595.       3597.       3597.       3597.       3598.       3598.    
        3598.       3598.       3598.       3598.       3600.       3600.       3600.       3597.       3597.       3597.    
        3595.       3595.       3595.       3595.       3595.       3596.       3596.       3596.       3597.       3598.    
        3598.       3598.       3600.       3603.       3605.       3607.       3607.       3608.       3609.       3611.    
        3612.       3610.       3610.       3609.       3613.       3615.    
   2    3480.       3480.       3486.       3489.       3489.       3483.       3481.       3480.       3481.       3481.    
        3478.       3478.       3482.       3489.       3496.       3496.       3496.       3496.       3496.       3499.    
        3499.       3499.       3499.       3502.       3502.       3502.       3509.       3509.       3509.       3517.    
        3517.       3517.       3525.       3525.       3525.       3528.       3528.       3528.       3530.       3530.    
        3530.       3530.       3530.       3530.       3529.       3529.       3529.       3529.       3529.       3529.    
        3528.       3528.       3528.       3530.       3530.       3530.       3530.       3530.       3530.       3531.    
        3531.       3531.       3531.       3531.       3531.       3533.       3533.       3533.       3533.       3533.    
        3533.       3534.       3534.       3534.       3534.       3536.       3536.       3536.       3537.       3537.    
        3537.       3538.       3538.       3538.       3538.       3538.       3538.       3538.       3538.       3538.    
        3537.       3537.       3537.       3540.       3540.       3540.       3544.       3544.       3544.       3545.    
        3545.       3545.       3548.       3548.       3548.       3554.       3554.       3554.       3563.       3563.    
        3563.       3575.       3575.       3575.       3585.       3585.       3585.       3589.       3589.       3589.    
        3590.       3590.       3590.       3588.       3588.       3588.       3588.       3588.       3588.       3591.    
        3591.       3591.       3591.       3591.       3591.       3591.       3594.       3594.       3594.       3596.    
        3596.       3596.       3597.       3597.       3597.       3597.       3597.       3597.       3597.       3597.    
        3597.       3597.       3597.       3597.       3598.       3598.       3598.       3596.       3596.       3596.    
        3595.       3595.       3595.       3595.       3595.       3598.       3598.       3599.       3598.       3599.    
        3599.       3599.       3601.       3602.       3603.       3603.       3603.       3605.       3605.       3605.    
        3608.       3612.       3612.       3611.       3615.       3617.    
   3    3480.       3477.       3485.       3484.       3484.       3480.       3480.       3480.       3478.       3478.    
        3478.       3481.       3485.       3492.       3497.       3497.       3497.       3497.       3497.       3497.    
        3497.       3497.       3497.       3500.       3500.       3500.       3505.       3505.       3505.       3510.    
        3510.       3510.       3517.       3517.       3517.       3524.       3524.       3524.       3528.       3528.    
        3528.       3529.       3529.       3529.       3531.       3531.       3531.       3531.       3531.       3531.    
        3528.       3528.       3528.       3528.       3528.       3528.       3528.       3528.       3528.       3529.    
        3529.       3529.       3531.       3531.       3531.       3533.       3533.       3533.       3533.       3533.    
        3533.       3534.       3534.       3534.       3534.       3535.       3535.       3535.       3535.       3535.    
        3535.       3537.       3537.       3537.       3538.       3538.       3538.       3535.       3535.       3535.    
        3534.       3534.       3534.       3538.       3538.       3538.       3542.       3542.       3542.       3541.    
        3541.       3541.       3541.       3541.       3541.       3545.       3545.       3545.       3553.       3553.    
        3553.       3565.       3565.       3565.       3578.       3578.       3578.       3586.       3586.       3586.    
        3587.       3587.       3587.       3585.       3585.       3585.       3585.       3585.       3585.       3588.    
        3588.       3588.       3588.       3590.       3590.       3590.       3591.       3591.       3591.       3592.    
        3592.       3592.       3593.       3593.       3593.       3594.       3594.       3594.       3595.       3595.    
        3595.       3597.       3597.       3597.       3596.       3596.       3596.       3595.       3595.       3595.    
        3596.       3596.       3596.       3596.       3596.       3597.       3597.       3597.       3596.       3596.    
        3597.       3597.       3597.       3598.       3600.       3603.       3603.       3606.       3607.       3608.    
        3612.       3614.       3614.       3613.       3617.       3617.    
   4    3480.       3477.       3483.       3482.       3482.       3480.       3480.       3480.       3480.       3480.    
        3480.       3482.       3484.       3488.       3495.       3495.       3496.       3496.       3496.       3497.    
        3497.       3497.       3497.       3501.       3501.       3501.       3506.       3506.       3506.       3507.    
        3507.       3507.       3509.       3509.       3509.       3517.       3517.       3517.       3524.       3524.    
        3524.       3530.       3530.       3530.       3531.       3531.       3531.       3531.       3531.       3531.    
        3531.       3531.       3531.       3531.       3531.       3531.       3531.       3531.       3531.       3531.    
        3531.       3531.       3532.       3532.       3532.       3533.       3533.       3533.       3535.       3535.    
        3535.       3535.       3535.       3535.       3535.       3534.       3534.       3534.       3535.       3535.    
        3535.       3537.       3537.       3537.       3536.       3536.       3536.       3535.       3535.       3535.    
        3534.       3534.       3534.       3538.       3538.       3538.       3543.       3543.       3543.       3543.    
        3543.       3543.       3541.       3541.       3541.       3542.       3542.       3542.       3546.       3546.    
        3546.       3551.       3551.       3551.       3557.       3557.       3557.       3567.       3567.       3567.    
        3576.       3576.       3576.       3582.       3582.       3582.       3585.       3585.       3585.       3587.    
        3587.       3587.       3587.       3587.       3587.       3587.       3587.       3587.       3587.       3589.    
        3589.       3589.       3591.       3591.       3591.       3592.       3592.       3592.       3595.       3595.    
        3595.       3599.       3599.       3599.       3598.       3598.       3598.       3596.       3596.       3596.    
        3597.       3597.       3597.       3598.       3598.       3598.       3598.       3596.       3595.       3596.    
        3596.       3596.       3598.       3598.       3599.       3600.       3600.       3601.       3602.       3604.    
        3607.       3609.       3609.       3611.       3613.       3614.    
   5    3480.       3477.       3483.       3482.       3482.       3480.       3480.       3480.       3480.       3480.    
        3480.       3482.       3484.       3488.       3495.       3495.       3496.       3496.       3496.       3497.    
        3497.       3497.       3497.       3501.       3501.       3501.       3506.       3506.       3506.       3507.    
        3507.       3507.       3509.       3509.       3509.       3517.       3517.       3517.       3524.       3524.    
        3524.       3530.       3530.       3530.       3531.       3531.       3531.       3531.       3531.       3531.    
        3531.       3531.       3531.       3531.       3531.       3531.       3531.       3531.       3531.       3531.    
        3531.       3531.       3532.       3532.       3532.       3533.       3533.       3533.       3535.       3535.    
        3535.       3535.       3535.       3535.       3535.       3534.       3534.       3534.       3535.       3535.    
        3535.       3537.       3537.       3537.       3536.       3536.       3536.       3535.       3535.       3535.    
        3534.       3534.       3534.       3538.       3538.       3538.       3543.       3543.       3543.       3543.    
        3543.       3543.       3541.       3541.       3541.       3542.       3542.       3542.       3546.       3546.    
        3546.       3551.       3551.       3551.       3557.       3557.       3557.       3567.       3567.       3567.    
        3576.       3576.       3576.       3582.       3582.       3582.       3585.       3585.       3585.       3587.    
        3587.       3587.       3587.       3587.       3587.       3587.       3587.       3587.       3587.       3589.    
        3589.       3589.       3591.       3591.       3591.       3592.       3592.       3592.       3595.       3595.    
        3595.       3599.       3599.       3599.       3598.       3598.       3598.       3596.       3596.       3596.    
        3597.       3597.       3597.       3598.       3598.       3598.       3598.       3596.       3595.       3596.    
        3596.       3596.       3598.       3598.       3599.       3600.       3600.       3601.       3602.       3604.    
        3607.       3609.       3609.       3611.       3613.       3614.    
   6    3483.       3481.       3482.       3483.       3483.       3481.       3481.       3484.       3475.       3475.    
        3479.       3483.       3486.       3489.       3493.       3493.       3497.       3497.       3497.       3498.    
        3498.       3498.       3498.       3503.       3503.       3503.       3507.       3507.       3507.       3506.    
        3506.       3506.       3505.       3505.       3505.       3509.       3509.       3509.       3517.       3517.    
        3517.       3526.       3526.       3526.       3530.       3530.       3530.       3531.       3531.       3531.    
        3530.       3530.       3530.       3530.       3530.       3530.       3532.       3532.       3532.       3532.    
        3532.       3532.       3531.       3531.       3531.       3534.       3534.       3534.       3535.       3535.    
        3535.       3534.       3534.       3534.       3534.       3534.       3534.       3534.       3536.       3536.    
        3536.       3537.       3537.       3537.       3533.       3533.       3533.       3532.       3532.       3532.    
        3534.       3534.       3534.       3539.       3539.       3539.       3543.       3543.       3543.       3545.    
        3545.       3545.       3545.       3545.       3545.       3543.       3543.       3543.       3545.       3545.    
        3545.       3548.       3548.       3548.       3548.       3548.       3548.       3551.       3551.       3551.    
        3556.       3556.       3556.       3561.       3561.       3561.       3568.       3568.       3568.       3575.    
        3575.       3575.       3575.       3580.       3580.       3580.       3584.       3584.       3584.       3589.    
        3589.       3589.       3592.       3592.       3592.       3592.       3592.       3592.       3594.       3594.    
        3594.       3601.       3601.       3601.       3599.       3599.       3599.       3598.       3598.       3598.    
        3596.       3596.       3596.       3597.       3597.       3597.       3597.       3596.       3591.       3589.    
        3589.       3589.       3589.       3590.       3593.       3594.       3594.       3593.       3590.       3589.    
        3591.       3592.       3592.       3594.       3600.       3604.    
   7    3481.       3480.       3478.       3483.       3483.       3481.       3483.       3482.       3483.       3483.    
        3482.       3485.       3485.       3490.       3496.       3496.       3498.       3498.       3498.       3499.    
        3499.       3499.       3499.       3502.       3502.       3502.       3507.       3507.       3507.       3505.    
        3505.       3505.       3503.       3503.       3503.       3505.       3505.       3505.       3510.       3510.    
        3510.       3517.       3517.       3517.       3524.       3524.       3524.       3529.       3529.       3529.    
        3531.       3531.       3531.       3533.       3533.       3533.       3535.       3535.       3535.       3534.    
        3534.       3534.       3533.       3533.       3533.       3532.       3532.       3532.       3534.       3534.    
        3534.       3534.       3534.       3534.       3534.       3535.       3535.       3535.       3535.       3535.    
        3535.       3535.       3535.       3535.       3532.       3532.       3532.       3532.       3532.       3532.    
        3536.       3536.       3536.       3539.       3539.       3539.       3541.       3541.       3541.       3543.    
        3543.       3543.       3547.       3547.       3547.       3545.       3545.       3545.       3544.       3544.    
        3544.       3547.       3547.       3547.       3549.       3549.       3549.       3551.       3551.       3551.    
        3553.       3553.       3553.       3554.       3554.       3554.       3557.       3557.       3557.       3560.    
        3560.       3560.       3560.       3563.       3563.       3563.       3568.       3568.       3568.       3573.    
        3573.       3573.       3581.       3581.       3581.       3587.       3587.       3587.       3592.       3592.    
        3592.       3595.       3595.       3595.       3592.       3592.       3592.       3585.       3585.       3585.    
        3580.       3580.       3580.       3575.       3575.       3571.       3571.       3569.       3564.       3563.    
        3560.       3560.       3560.       3559.       3561.       3564.       3564.       3566.       3567.       3572.    
        3577.       3578.       3578.       3579.       3581.       3583.    
   8    3483.       3481.       3485.       3485.       3485.       3478.       3478.       3483.       3484.       3484.    
        3484.       3488.       3489.       3494.       3498.       3498.       3501.       3501.       3501.       3501.    
        3501.       3501.       3501.       3501.       3501.       3501.       3502.       3502.       3502.       3506.    
        3506.       3506.       3503.       3503.       3503.       3502.       3502.       3502.       3504.       3504.    
        3504.       3510.       3510.       3510.       3515.       3515.       3515.       3523.       3523.       3523.    
        3529.       3529.       3529.       3536.       3536.       3536.       3539.       3539.       3539.       3537.    
        3537.       3537.       3535.       3535.       3535.       3534.       3534.       3534.       3534.       3534.    
        3534.       3535.       3535.       3535.       3535.       3538.       3538.       3538.       3537.       3537.    
        3537.       3534.       3534.       3534.       3533.       3533.       3533.       3533.       3533.       3533.    
        3536.       3536.       3536.       3539.       3539.       3539.       3537.       3537.       3537.       3539.    
        3539.       3539.       3543.       3543.       3543.       3546.       3546.       3546.       3545.       3545.    
        3545.       3543.       3543.       3543.       3542.       3542.       3542.       3545.       3545.       3545.    
        3548.       3548.       3548.       3552.       3552.       3552.       3555.       3555.       3555.       3557.    
        3557.       3557.       3557.       3558.       3558.       3558.       3558.       3558.       3558.       3559.    
        3559.       3559.       3563.       3563.       3563.       3570.       3570.       3570.       3575.       3575.    
        3575.       3575.       3575.       3575.       3566.       3566.       3566.       3560.       3560.       3560.    
        3555.       3555.       3555.       3550.       3550.       3549.       3549.       3549.       3550.       3551.    
        3549.       3549.       3547.       3548.       3551.       3553.       3553.       3553.       3554.       3555.    
        3558.       3563.       3563.       3566.       3567.       3567.    
   9    3483.       3484.       3487.       3484.       3484.       3485.       3478.       3482.       3482.       3482.    
        3483.       3488.       3488.       3492.       3495.       3495.       3498.       3498.       3498.       3500.    
        3500.       3500.       3500.       3500.       3500.       3500.       3500.       3500.       3500.       3502.    
        3502.       3502.       3503.       3503.       3503.       3502.       3502.       3502.       3501.       3501.    
        3501.       3504.       3504.       3504.       3507.       3507.       3507.       3512.       3512.       3512.    
        3522.       3522.       3522.       3531.       3531.       3531.       3536.       3536.       3536.       3538.    
        3538.       3538.       3539.       3539.       3539.       3540.       3540.       3540.       3540.       3540.    
        3540.       3539.       3539.       3539.       3539.       3540.       3540.       3540.       3540.       3540.    
        3540.       3539.       3539.       3539.       3537.       3537.       3537.       3537.       3537.       3537.    
        3537.       3537.       3537.       3537.       3537.       3537.       3537.       3537.       3537.       3540.    
        3540.       3540.       3544.       3544.       3544.       3549.       3549.       3549.       3549.       3549.    
        3549.       3547.       3547.       3547.       3544.       3544.       3544.       3542.       3542.       3542.    
        3541.       3541.       3541.       3544.       3544.       3544.       3548.       3548.       3548.       3551.    
        3551.       3551.       3551.       3554.       3554.       3554.       3556.       3556.       3556.       3557.    
        3557.       3557.       3560.       3560.       3560.       3561.       3561.       3561.       3556.       3556.    
        3556.       3551.       3551.       3551.       3551.       3551.       3551.       3552.       3552.       3552.    
        3548.       3548.       3548.       3545.       3545.       3546.       3546.       3547.       3547.       3546.    
        3541.       3541.       3539.       3542.       3547.       3548.       3548.       3547.       3546.       3544.    
        3546.       3551.       3551.       3553.       3551.       3550.    
  10    3487.       3487.       3487.       3489.       3489.       3487.       3481.       3478.       3482.       3482.    
        3484.       3486.       3487.       3488.       3492.       3492.       3496.       3496.       3496.       3501.    
        3501.       3501.       3501.       3501.       3501.       3501.       3503.       3503.       3503.       3505.    
        3505.       3505.       3505.       3505.       3505.       3506.       3506.       3506.       3505.       3505.    
        3505.       3504.       3504.       3504.       3504.       3504.       3504.       3507.       3507.       3507.    
        3512.       3512.       3512.       3520.       3520.       3520.       3530.       3530.       3530.       3534.    
        3534.       3534.       3535.       3535.       3535.       3536.       3536.       3536.       3538.       3538.    
        3538.       3541.       3541.       3541.       3541.       3542.       3542.       3542.       3540.       3540.    
        3540.       3541.       3541.       3541.       3541.       3541.       3541.       3541.       3541.       3541.    
        3542.       3542.       3542.       3542.       3542.       3542.       3540.       3540.       3540.       3540.    
        3540.       3540.       3546.       3546.       3546.       3548.       3548.       3548.       3549.       3549.    
        3549.       3550.       3550.       3550.       3549.       3549.       3549.       3548.       3548.       3548.    
        3546.       3546.       3546.       3544.       3544.       3544.       3542.       3542.       3542.       3543.    
        3543.       3543.       3543.       3546.       3546.       3546.       3549.       3549.       3549.       3551.    
        3551.       3551.       3551.       3551.       3551.       3544.       3544.       3544.       3535.       3535.    
        3535.       3533.       3533.       3533.       3537.       3537.       3537.       3541.       3541.       3541.    
        3540.       3540.       3540.       3538.       3538.       3538.       3538.       3539.       3539.       3539.    
        3536.       3536.       3536.       3537.       3540.       3543.       3543.       3544.       3543.       3541.    
        3542.       3543.       3543.       3544.       3545.       3545.    
  11    3487.       3487.       3487.       3489.       3489.       3487.       3481.       3478.       3482.       3482.    
        3484.       3486.       3487.       3488.       3492.       3492.       3496.       3496.       3496.       3501.    
        3501.       3501.       3501.       3501.       3501.       3501.       3503.       3503.       3503.       3505.    
        3505.       3505.       3505.       3505.       3505.       3506.       3506.       3506.       3505.       3505.    
        3505.       3504.       3504.       3504.       3504.       3504.       3504.       3507.       3507.       3507.    
        3512.       3512.       3512.       3520.       3520.       3520.       3530.       3530.       3530.       3534.    
        3534.       3534.       3535.       3535.       3535.       3536.       3536.       3536.       3538.       3538.    
        3538.       3541.       3541.       3541.       3541.       3542.       3542.       3542.       3540.       3540.    
        3540.       3541.       3541.       3541.       3541.       3541.       3541.       3541.       3541.       3541.    
        3542.       3542.       3542.       3542.       3542.       3542.       3540.       3540.       3540.       3540.    
        3540.       3540.       3546.       3546.       3546.       3548.       3548.       3548.       3549.       3549.    
        3549.       3550.       3550.       3550.       3549.       3549.       3549.       3548.       3548.       3548.    
        3546.       3546.       3546.       3544.       3544.       3544.       3542.       3542.       3542.       3543.    
        3543.       3543.       3543.       3546.       3546.       3546.       3549.       3549.       3549.       3551.    
        3551.       3551.       3551.       3551.       3551.       3544.       3544.       3544.       3535.       3535.    
        3535.       3533.       3533.       3533.       3537.       3537.       3537.       3541.       3541.       3541.    
        3540.       3540.       3540.       3538.       3538.       3538.       3538.       3539.       3539.       3539.    
        3536.       3536.       3536.       3537.       3540.       3543.       3543.       3544.       3543.       3541.    
        3542.       3543.       3543.       3544.       3545.       3545.    
  12    3488.       3488.       3488.       3491.       3491.       3485.       3481.       3480.       3483.       3483.    
        3482.       3483.       3483.       3485.       3489.       3489.       3493.       3493.       3493.       3499.    
        3499.       3499.       3499.       3504.       3504.       3504.       3504.       3504.       3504.       3507.    
        3507.       3507.       3507.       3507.       3507.       3505.       3505.       3505.       3507.       3507.    
        3507.       3507.       3507.       3507.       3505.       3505.       3505.       3506.       3506.       3506.    
        3508.       3508.       3508.       3512.       3512.       3512.       3517.       3517.       3517.       3524.    
        3524.       3524.       3530.       3530.       3530.       3533.       3533.       3533.       3535.       3535.    
        3535.       3537.       3537.       3537.       3537.       3538.       3538.       3538.       3539.       3539.    
        3539.       3538.       3538.       3538.       3540.       3540.       3540.       3539.       3539.       3539.    
        3540.       3540.       3540.       3541.       3541.       3541.       3542.       3542.       3542.       3542.    
        3542.       3542.       3546.       3546.       3546.       3543.       3543.       3543.       3545.       3545.    
        3545.       3546.       3546.       3546.       3546.       3546.       3546.       3545.       3545.       3545.    
        3544.       3544.       3544.       3543.       3543.       3543.       3542.       3542.       3542.       3544.    
        3544.       3544.       3544.       3540.       3540.       3540.       3538.       3538.       3538.       3535.    
        3535.       3535.       3532.       3532.       3532.       3527.       3527.       3527.       3524.       3524.    
        3524.       3525.       3525.       3525.       3524.       3524.       3524.       3525.       3525.       3525.    
        3527.       3527.       3527.       3530.       3530.       3533.       3533.       3534.       3534.       3533.    
        3531.       3531.       3531.       3531.       3533.       3537.       3537.       3537.       3538.       3539.    
        3540.       3540.       3540.       3542.       3544.       3546.    
  13    3487.       3484.       3481.       3483.       3483.       3484.       3482.       3482.       3482.       3482.    
        3479.       3478.       3479.       3482.       3486.       3486.       3490.       3490.       3490.       3495.    
        3495.       3495.       3495.       3500.       3500.       3500.       3503.       3503.       3503.       3506.    
        3506.       3506.       3506.       3506.       3506.       3503.       3503.       3503.       3502.       3502.    
        3502.       3503.       3503.       3503.       3502.       3502.       3502.       3503.       3503.       3503.    
        3504.       3504.       3504.       3506.       3506.       3506.       3507.       3507.       3507.       3510.    
        3510.       3510.       3515.       3515.       3515.       3521.       3521.       3521.       3526.       3526.    
        3526.       3529.       3529.       3529.       3529.       3531.       3531.       3531.       3532.       3532.    
        3532.       3533.       3533.       3533.       3534.       3534.       3534.       3536.       3536.       3536.    
        3537.       3537.       3537.       3537.       3537.       3537.       3537.       3537.       3537.       3538.    
        3538.       3538.       3540.       3540.       3540.       3543.       3543.       3543.       3537.       3537.    
        3537.       3537.       3537.       3537.       3538.       3538.       3538.       3539.       3539.       3539.    
        3541.       3541.       3541.       3541.       3541.       3541.       3540.       3540.       3540.       3540.    
        3540.       3540.       3540.       3534.       3534.       3534.       3528.       3528.       3528.       3525.    
        3525.       3525.       3523.       3523.       3523.       3522.       3522.       3522.       3520.       3520.    
        3520.       3520.       3520.       3520.       3519.       3519.       3519.       3518.       3518.       3518.    
        3519.       3519.       3519.       3522.       3522.       3524.       3524.       3526.       3528.       3527.    
        3529.       3529.       3530.       3533.       3534.       3537.       3537.       3538.       3537.       3538.    
        3541.       3542.       3542.       3542.       3544.       3547.    
  14    3491.       3487.       3483.       3482.       3482.       3482.       3486.       3484.       3481.       3481.    
        3479.       3482.       3483.       3483.       3482.       3482.       3486.       3486.       3486.       3493.    
        3493.       3493.       3493.       3499.       3499.       3499.       3503.       3503.       3503.       3502.    
        3502.       3502.       3503.       3503.       3503.       3500.       3500.       3500.       3499.       3499.    
        3499.       3499.       3499.       3499.       3500.       3500.       3500.       3501.       3501.       3501.    
        3503.       3503.       3503.       3502.       3502.       3502.       3500.       3500.       3500.       3502.    
        3502.       3502.       3506.       3506.       3506.       3511.       3511.       3511.       3515.       3515.    
        3515.       3517.       3517.       3517.       3517.       3519.       3519.       3519.       3521.       3521.    
        3521.       3523.       3523.       3523.       3527.       3527.       3527.       3529.       3529.       3529.    
        3530.       3530.       3530.       3530.       3530.       3530.       3530.       3530.       3530.       3531.    
        3531.       3531.       3532.       3532.       3532.       3534.       3534.       3534.       3537.       3537.    
        3537.       3529.       3529.       3529.       3528.       3528.       3528.       3528.       3528.       3528.    
        3527.       3527.       3527.       3527.       3527.       3527.       3527.       3527.       3527.       3526.    
        3526.       3526.       3526.       3525.       3525.       3525.       3522.       3522.       3522.       3519.    
        3519.       3519.       3519.       3519.       3519.       3519.       3519.       3519.       3521.       3521.    
        3521.       3523.       3523.       3523.       3524.       3524.       3524.       3523.       3523.       3523.    
        3524.       3524.       3524.       3525.       3525.       3527.       3527.       3529.       3528.       3527.    
        3531.       3531.       3535.       3536.       3538.       3540.       3540.       3540.       3539.       3539.    
        3540.       3540.       3540.       3540.       3543.       3546.    
  15    3495.       3490.       3485.       3483.       3483.       3483.       3488.       3488.       3484.       3484.    
        3481.       3483.       3485.       3487.       3485.       3485.       3485.       3485.       3485.       3488.    
        3488.       3488.       3488.       3494.       3494.       3494.       3499.       3499.       3499.       3503.    
        3503.       3503.       3505.       3505.       3505.       3504.       3504.       3504.       3506.       3506.    
        3506.       3507.       3507.       3507.       3507.       3507.       3507.       3509.       3509.       3509.    
        3508.       3508.       3508.       3509.       3509.       3509.       3507.       3507.       3507.       3506.    
        3506.       3506.       3505.       3505.       3505.       3505.       3505.       3505.       3506.       3506.    
        3506.       3508.       3508.       3508.       3508.       3510.       3510.       3510.       3513.       3513.    
        3513.       3515.       3515.       3515.       3516.       3516.       3516.       3518.       3518.       3518.    
        3520.       3520.       3520.       3521.       3521.       3521.       3522.       3522.       3522.       3522.    
        3522.       3522.       3523.       3523.       3523.       3526.       3526.       3526.       3528.       3528.    
        3528.       3521.       3521.       3521.       3523.       3523.       3523.       3526.       3526.       3526.    
        3526.       3526.       3526.       3525.       3525.       3525.       3522.       3522.       3522.       3516.    
        3516.       3516.       3516.       3516.       3516.       3516.       3518.       3518.       3518.       3519.    
        3519.       3519.       3519.       3519.       3519.       3519.       3519.       3519.       3522.       3522.    
        3522.       3525.       3525.       3525.       3526.       3526.       3526.       3527.       3527.       3527.    
        3530.       3530.       3530.       3534.       3534.       3535.       3535.       3533.       3530.       3530.    
        3533.       3533.       3537.       3538.       3539.       3540.       3540.       3542.       3542.       3542.    
        3542.       3541.       3541.       3543.       3545.       3547.    
  16    3499.       3495.       3491.       3485.       3485.       3478.       3480.       3486.       3488.       3488.    
        3482.       3481.       3483.       3486.       3488.       3488.       3488.       3488.       3488.       3488.    
        3488.       3488.       3488.       3489.       3489.       3489.       3489.       3489.       3489.       3493.    
        3493.       3493.       3496.       3496.       3496.       3500.       3500.       3500.       3502.       3502.    
        3502.       3501.       3501.       3501.       3506.       3506.       3506.       3508.       3508.       3508.    
        3508.       3508.       3508.       3508.       3508.       3508.       3509.       3509.       3509.       3512.    
        3512.       3512.       3512.       3512.       3512.       3513.       3513.       3513.       3512.       3512.    
        3512.       3509.       3509.       3509.       3509.       3509.       3509.       3509.       3511.       3511.    
        3511.       3512.       3512.       3512.       3512.       3512.       3512.       3511.       3511.       3511.    
        3513.       3513.       3513.       3514.       3514.       3514.       3516.       3516.       3516.       3517.    
        3517.       3517.       3519.       3519.       3519.       3520.       3520.       3520.       3521.       3521.    
        3521.       3521.       3521.       3521.       3516.       3516.       3516.       3518.       3518.       3518.    
        3520.       3520.       3520.       3519.       3519.       3519.       3517.       3517.       3517.       3514.    
        3514.       3514.       3514.       3514.       3514.       3514.       3515.       3515.       3515.       3517.    
        3517.       3517.       3519.       3519.       3519.       3519.       3519.       3519.       3522.       3522.    
        3522.       3524.       3524.       3524.       3526.       3526.       3526.       3527.       3527.       3527.    
        3529.       3529.       3529.       3531.       3531.       3532.       3532.       3531.       3531.       3532.    
        3534.       3534.       3536.       3536.       3537.       3541.       3541.       3543.       3544.       3543.    
        3540.       3540.       3540.       3542.       3546.       3547.    
  17    3499.       3495.       3491.       3485.       3485.       3478.       3480.       3486.       3488.       3488.    
        3482.       3481.       3483.       3486.       3488.       3488.       3488.       3488.       3488.       3488.    
        3488.       3488.       3488.       3489.       3489.       3489.       3489.       3489.       3489.       3493.    
        3493.       3493.       3496.       3496.       3496.       3500.       3500.       3500.       3502.       3502.    
        3502.       3501.       3501.       3501.       3506.       3506.       3506.       3508.       3508.       3508.    
        3508.       3508.       3508.       3508.       3508.       3508.       3509.       3509.       3509.       3512.    
        3512.       3512.       3512.       3512.       3512.       3513.       3513.       3513.       3512.       3512.    
        3512.       3509.       3509.       3509.       3509.       3509.       3509.       3509.       3511.       3511.    
        3511.       3512.       3512.       3512.       3512.       3512.       3512.       3511.       3511.       3511.    
        3513.       3513.       3513.       3514.       3514.       3514.       3516.       3516.       3516.       3517.    
        3517.       3517.       3519.       3519.       3519.       3520.       3520.       3520.       3521.       3521.    
        3521.       3521.       3521.       3521.       3516.       3516.       3516.       3518.       3518.       3518.    
        3520.       3520.       3520.       3519.       3519.       3519.       3517.       3517.       3517.       3514.    
        3514.       3514.       3514.       3514.       3514.       3514.       3515.       3515.       3515.       3517.    
        3517.       3517.       3519.       3519.       3519.       3519.       3519.       3519.       3522.       3522.    
        3522.       3524.       3524.       3524.       3526.       3526.       3526.       3527.       3527.       3527.    
        3529.       3529.       3529.       3531.       3531.       3532.       3532.       3531.       3531.       3532.    
        3534.       3534.       3536.       3536.       3537.       3541.       3541.       3543.       3544.       3543.    
        3540.       3540.       3540.       3542.       3546.       3547.    
  18    3499.       3496.       3497.       3486.       3486.       3487.       3485.       3486.       3488.       3488.    
        3483.       3483.       3486.       3490.       3492.       3492.       3493.       3493.       3493.       3493.    
        3493.       3493.       3493.       3491.       3491.       3491.       3489.       3489.       3489.       3487.    
        3487.       3487.       3489.       3489.       3489.       3493.       3493.       3493.       3496.       3496.    
        3496.       3497.       3497.       3497.       3498.       3498.       3498.       3498.       3498.       3498.    
        3502.       3502.       3502.       3506.       3506.       3506.       3511.       3511.       3511.       3509.    
        3509.       3509.       3509.       3509.       3509.       3511.       3511.       3511.       3512.       3512.    
        3512.       3511.       3511.       3511.       3511.       3510.       3510.       3510.       3514.       3514.    
        3514.       3515.       3515.       3515.       3514.       3514.       3514.       3511.       3511.       3511.    
        3510.       3510.       3510.       3512.       3512.       3512.       3513.       3513.       3513.       3513.    
        3513.       3513.       3514.       3514.       3514.       3517.       3517.       3517.       3518.       3518.    
        3518.       3518.       3518.       3518.       3516.       3516.       3516.       3508.       3508.       3508.    
        3510.       3510.       3510.       3514.       3514.       3514.       3515.       3515.       3515.       3515.    
        3515.       3515.       3515.       3516.       3516.       3516.       3518.       3518.       3518.       3523.    
        3523.       3523.       3526.       3526.       3526.       3526.       3526.       3526.       3525.       3525.    
        3525.       3526.       3526.       3526.       3528.       3528.       3528.       3530.       3530.       3530.    
        3533.       3533.       3533.       3536.       3536.       3538.       3538.       3536.       3535.       3534.    
        3535.       3535.       3537.       3536.       3535.       3537.       3537.       3541.       3543.       3542.    
        3540.       3539.       3539.       3540.       3544.       3547.    
  19    3503.       3501.       3499.       3490.       3490.       3493.       3497.       3491.       3491.       3491.    
        3484.       3485.       3487.       3490.       3493.       3493.       3495.       3495.       3495.       3496.    
        3496.       3496.       3496.       3495.       3495.       3495.       3494.       3494.       3494.       3491.    
        3491.       3491.       3490.       3490.       3490.       3492.       3492.       3492.       3494.       3494.    
        3494.       3495.       3495.       3495.       3493.       3493.       3493.       3492.       3492.       3492.    
        3494.       3494.       3494.       3500.       3500.       3500.       3504.       3504.       3504.       3504.    
        3504.       3504.       3505.       3505.       3505.       3507.       3507.       3507.       3509.       3509.    
        3509.       3508.       3508.       3508.       3508.       3508.       3508.       3508.       3509.       3509.    
        3509.       3513.       3513.       3513.       3511.       3511.       3511.       3510.       3510.       3510.    
        3510.       3510.       3510.       3511.       3511.       3511.       3512.       3512.       3512.       3513.    
        3513.       3513.       3515.       3515.       3515.       3516.       3516.       3516.       3518.       3518.    
        3518.       3515.       3515.       3515.       3510.       3510.       3510.       3508.       3508.       3508.    
        3505.       3505.       3505.       3511.       3511.       3511.       3514.       3514.       3514.       3516.    
        3516.       3516.       3516.       3519.       3519.       3519.       3520.       3520.       3520.       3521.    
        3521.       3521.       3525.       3525.       3525.       3527.       3527.       3527.       3528.       3528.    
        3528.       3528.       3528.       3528.       3529.       3529.       3529.       3530.       3530.       3530.    
        3533.       3533.       3533.       3537.       3537.       3540.       3540.       3540.       3538.       3536.    
        3535.       3535.       3535.       3535.       3535.       3537.       3537.       3538.       3541.       3543.    
        3541.       3542.       3542.       3547.       3550.       3552.    
  20    3504.       3502.       3497.       3491.       3491.       3495.       3498.       3493.       3493.       3493.    
        3489.       3486.       3484.       3486.       3490.       3490.       3493.       3493.       3493.       3491.    
        3491.       3491.       3491.       3491.       3491.       3491.       3493.       3493.       3493.       3493.    
        3493.       3493.       3492.       3492.       3492.       3493.       3493.       3493.       3493.       3493.    
        3493.       3493.       3493.       3493.       3494.       3494.       3494.       3493.       3493.       3493.    
        3492.       3492.       3492.       3495.       3495.       3495.       3497.       3497.       3497.       3497.    
        3497.       3497.       3498.       3498.       3498.       3500.       3500.       3500.       3503.       3503.    
        3503.       3503.       3503.       3503.       3503.       3504.       3504.       3504.       3506.       3506.    
        3506.       3510.       3510.       3510.       3510.       3510.       3510.       3508.       3508.       3508.    
        3509.       3509.       3509.       3510.       3510.       3510.       3510.       3510.       3510.       3511.    
        3511.       3511.       3515.       3515.       3515.       3517.       3517.       3517.       3519.       3519.    
        3519.       3514.       3514.       3514.       3508.       3508.       3508.       3504.       3504.       3504.    
        3505.       3505.       3505.       3514.       3514.       3514.       3516.       3516.       3516.       3518.    
        3518.       3518.       3518.       3521.       3521.       3521.       3521.       3521.       3521.       3521.    
        3521.       3521.       3524.       3524.       3524.       3527.       3527.       3527.       3530.       3530.    
        3530.       3530.       3530.       3530.       3529.       3529.       3529.       3531.       3531.       3531.    
        3533.       3533.       3533.       3537.       3537.       3540.       3540.       3541.       3537.       3536.    
        3535.       3535.       3536.       3534.       3536.       3538.       3538.       3541.       3545.       3545.    
        3546.       3549.       3549.       3552.       3551.       3552.    
  21    3505.       3505.       3500.       3491.       3491.       3494.       3493.       3492.       3492.       3492.    
        3491.       3486.       3482.       3484.       3485.       3485.       3487.       3487.       3487.       3488.    
        3488.       3488.       3488.       3488.       3488.       3488.       3490.       3490.       3490.       3493.    
        3493.       3493.       3493.       3493.       3493.       3491.       3491.       3491.       3491.       3491.    
        3491.       3492.       3492.       3492.       3494.       3494.       3494.       3497.       3497.       3497.    
        3495.       3495.       3495.       3495.       3495.       3495.       3495.       3495.       3495.       3495.    
        3495.       3495.       3494.       3494.       3494.       3495.       3495.       3495.       3496.       3496.    
        3496.       3497.       3497.       3497.       3497.       3499.       3499.       3499.       3502.       3502.    
        3502.       3506.       3506.       3506.       3509.       3509.       3509.       3509.       3509.       3509.    
        3510.       3510.       3510.       3510.       3510.       3510.       3508.       3508.       3508.       3510.    
        3510.       3510.       3514.       3514.       3514.       3515.       3515.       3515.       3515.       3515.    
        3515.       3512.       3512.       3512.       3509.       3509.       3509.       3506.       3506.       3506.    
        3507.       3507.       3507.       3514.       3514.       3514.       3518.       3518.       3518.       3520.    
        3520.       3520.       3520.       3523.       3523.       3523.       3525.       3525.       3525.       3526.    
        3526.       3526.       3526.       3526.       3526.       3528.       3528.       3528.       3530.       3530.    
        3530.       3531.       3531.       3531.       3532.       3532.       3532.       3534.       3534.       3534.    
        3535.       3535.       3535.       3534.       3534.       3534.       3534.       3537.       3536.       3536.    
        3537.       3537.       3535.       3533.       3536.       3541.       3541.       3544.       3545.       3545.    
        3547.       3548.       3548.       3549.       3549.       3550.    
  22    3505.       3505.       3500.       3491.       3491.       3494.       3493.       3492.       3492.       3492.    
        3491.       3486.       3482.       3484.       3485.       3485.       3487.       3487.       3487.       3488.    
        3488.       3488.       3488.       3488.       3488.       3488.       3490.       3490.       3490.       3493.    
        3493.       3493.       3493.       3493.       3493.       3491.       3491.       3491.       3491.       3491.    
        3491.       3492.       3492.       3492.       3494.       3494.       3494.       3497.       3497.       3497.    
        3495.       3495.       3495.       3495.       3495.       3495.       3495.       3495.       3495.       3495.    
        3495.       3495.       3494.       3494.       3494.       3495.       3495.       3495.       3496.       3496.    
        3496.       3497.       3497.       3497.       3497.       3499.       3499.       3499.       3502.       3502.    
        3502.       3506.       3506.       3506.       3509.       3509.       3509.       3509.       3509.       3509.    
        3510.       3510.       3510.       3510.       3510.       3510.       3508.       3508.       3506.       3510.    
        3510.       3510.       3514.       3514.       3514.       3515.       3515.       3515.       3515.       3515.    
        3515.       3512.       3512.       3512.       3509.       3509.       3509.       3506.       3506.       3506.    
        3507.       3507.       3507.       3514.       3514.       3514.       3518.       3518.       3518.       3520.    
        3520.       3520.       3520.       3523.       3523.       3523.       3525.       3525.       3525.       3526.    
        3526.       3526.       3526.       3526.       3526.       3528.       3528.       3528.       3530.       3530.    
        3530.       3531.       3531.       3531.       3532.       3532.       3532.       3531.       3534.       3534.    
        3535.       3535.       3535.       3534.       3534.       3534.       3534.       3537.       3536.       3536.    
        3537.       3537.       3535.       3533.       3536.       3541.       3541.       3544.       3545.       3545.    
        3547.       3548.       3548.       3549.       3549.       3550.    
  23    3506.       3502.       3493.       3490.       3490.       3489.       3491.       3493.       3491.       3491.    
        3490.       3486.       3485.       3486.       3485.       3485.       3487.       3487.       3487.       3488.    
        3488.       3488.       3488.       3489.       3489.       3489.       3491.       3491.       3491.       3492.    
        3492.       3492.       3494.       3494.       3494.       3494.       3494.       3494.       3493.       3493.    
        3493.       3493.       3493.       3493.       3495.       3495.       3495.       3496.       3496.       3496.    
        3495.       3495.       3495.       3496.       3496.       3496.       3497.       3497.       3497.       3498.    
        3498.       3498.       3497.       3497.       3497.       3496.       3496.       3496.       3496.       3496.    
        3496.       3495.       3495.       3495.       3495.       3498.       3498.       3498.       3499.       3499.    
        3499.       3502.       3502.       3502.       3504.       3504.       3504.       3503.       3503.       3503.    
        3505.       3505.       3505.       3506.       3506.       3506.       3506.       3506.       3506.       3506.    
        3506.       3506.       3506.       3506.       3506.       3507.       3507.       3507.       3508.       3508.    
        3508.       3508.       3508.       3508.       3509.       3509.       3509.       3511.       3511.       3511.    
        3514.       3514.       3514.       3517.       3517.       3517.       3518.       3518.       3518.       3520.    
        3520.       3520.       3520.       3522.       3522.       3522.       3523.       3523.       3523.       3524.    
        3524.       3524.       3524.       3524.       3524.       3524.       3524.       3524.       3526.       3526.    
        3526.       3526.       3526.       3526.       3528.       3528.       3528.       3531.       3531.       3531.    
        3533.       3533.       3533.       3533.       3533.       3534.       3534.       3535.       3535.       3537.    
        3539.       3539.       3538.       3537.       3537.       3541.       3541.       3543.       3545.       3545.    
        3546.       3546.       3546.       3546.       3547.       3549.    
  24    3504.       3501.       3493.       3490.       3490.       3488.       3488.       3492.       3490.       3490.    
        3488.       3487.       3490.       3489.       3490.       3490.       3491.       3491.       3491.       3492.    
        3492.       3492.       3492.       3493.       3493.       3493.       3494.       3494.       3494.       3496.    
        3496.       3496.       3498.       3498.       3498.       3499.       3499.       3499.       3498.       3498.    
        3498.       3497.       3497.       3497.       3497.       3497.       3497.       3497.       3497.       3497.    
        3497.       3497.       3497.       3498.       3498.       3498.       3499.       3499.       3499.       3501.    
        3501.       3501.       3501.       3501.       3501.       3502.       3502.       3502.       3502.       3502.    
        3502.       3501.       3501.       3501.       3501.       3501.       3501.       3501.       3503.       3503.    
        3503.       3503.       3503.       3503.       3502.       3502.       3502.       3503.       3503.       3503.    
        3503.       3503.       3503.       3505.       3505.       3505.       3507.       3507.       3507.       3508.    
        3508.       3508.       3508.       3508.       3508.       3508.       3508.       3508.       3510.       3510.    
        3510.       3510.       3510.       3510.       3513.       3513.       3513.       3515.       3515.       3515.    
        3517.       3517.       3517.       3517.       3517.       3517.       3519.       3519.       3519.       3519.    
        3519.       3519.       3519.       3521.       3521.       3521.       3524.       3524.       3524.       3525.    
        3525.       3525.       3527.       3527.       3527.       3529.       3529.       3529.       3531.       3531.    
        3531.       3532.       3532.       3532.       3534.       3534.       3534.       3534.       3534.       3534.    
        3533.       3533.       3533.       3532.       3532.       3533.       3533.       3535.       3538.       3539.    
        3541.       3541.       3543.       3543.       3542.       3541.       3541.       3542.       3544.       3546.    
        3544.       3544.       3544.       3546.       3547.       3549.    
  25    3500.       3498.       3491.       3486.       3486.       3488.       3487.       3494.       3491.       3491.    
        3489.       3488.       3490.       3491.       3493.       3493.       3495.       3495.       3495.       3494.    
        3494.       3494.       3494.       3495.       3495.       3495.       3497.       3497.       3497.       3499.    
        3499.       3499.       3499.       3499.       3499.       3499.       3499.       3499.       3499.       3499.    
        3499.       3498.       3498.       3498.       3497.       3497.       3497.       3497.       3497.       3497.    
        3499.       3499.       3499.       3501.       3501.       3501.       3503.       3503.       3503.       3505.    
        3505.       3505.       3506.       3506.       3506.       3506.       3506.       3506.       3507.       3507.    
        3507.       3508.       3508.       3508.       3508.       3507.       3507.       3507.       3506.       3506.    
        3506.       3504.       3504.       3504.       3505.       3505.       3505.       3507.       3507.       3507.    
        3507.       3507.       3507.       3508.       3508.       3508.       3509.       3509.       3509.       3511.    
        3511.       3511.       3514.       3514.       3514.       3515.       3515.       3515.       3517.       3517.    
        3517.       3517.       3517.       3517.       3516.       3516.       3516.       3516.       3516.       3516.    
        3516.       3516.       3516.       3516.       3516.       3516.       3518.       3518.       3518.       3519.    
        3519.       3519.       3519.       3522.       3522.       3522.       3525.       3525.       3525.       3526.    
        3526.       3526.       3529.       3529.       3529.       3531.       3531.       3531.       3535.       3535.    
        3535.       3539.       3539.       3539.       3542.       3542.       3542.       3542.       3542.       3542.    
        3537.       3537.       3537.       3534.       3534.       3535.       3535.       3537.       3539.       3539.    
        3540.       3540.       3543.       3546.       3545.       3546.       3546.       3546.       3546.       3548.    
        3550.       3550.       3550.       3549.       3549.       3551.    
  26    3498.       3493.       3489.       3488.       3488.       3489.       3490.       3493.       3492.       3492.    
        3491.       3490.       3489.       3490.       3493.       3493.       3495.       3495.       3495.       3493.    
        3493.       3493.       3493.       3493.       3493.       3493.       3496.       3496.       3496.       3499.    
        3499.       3499.       3500.       3500.       3500.       3498.       3498.       3498.       3498.       3498.    
        3498.       3497.       3497.       3497.       3497.       3497.       3497.       3498.       3498.       3498.    
        3500.       3500.       3500.       3502.       3502.       3502.       3500.       3500.       3500.       3501.    
        3501.       3501.       3503.       3503.       3503.       3504.       3504.       3504.       3505.       3505.    
        3505.       3507.       3507.       3507.       3507.       3509.       3509.       3509.       3507.       3507.    
        3507.       3507.       3507.       3507.       3508.       3508.       3508.       3508.       3508.       3508.    
        3506.       3506.       3506.       3506.       3506.       3506.       3507.       3507.       3507.       3508.    
        3508.       3508.       3511.       3511.       3511.       3513.       3513.       3513.       3515.       3515.    
        3515.       3517.       3517.       3517.       3518.       3518.       3518.       3517.       3517.       3517.    
        3517.       3517.       3517.       3516.       3516.       3516.       3518.       3518.       3518.       3521.    
        3521.       3521.       3521.       3522.       3522.       3522.       3527.       3527.       3527.       3527.    
        3527.       3527.       3529.       3529.       3529.       3531.       3531.       3531.       3533.       3533.    
        3533.       3536.       3536.       3536.       3541.       3541.       3541.       3543.       3543.       3543.    
        3543.       3543.       3543.       3541.       3541.       3540.       3540.       3541.       3541.       3539.    
        3539.       3539.       3544.       3546.       3546.       3545.       3545.       3547.       3547.       3546.    
        3548.       3550.       3550.       3551.       3551.       3552.    
  27    3498.       3493.       3489.       3488.       3488.       3489.       3490.       3493.       3492.       3492.    
        3491.       3490.       3489.       3490.       3493.       3493.       3495.       3495.       3495.       3493.    
        3493.       3493.       3493.       3493.       3493.       3493.       3496.       3496.       3496.       3499.    
        3499.       3499.       3500.       3500.       3500.       3498.       3498.       3498.       3498.       3498.    
        3498.       3497.       3497.       3497.       3497.       3497.       3497.       3498.       3498.       3498.    
        3500.       3500.       3500.       3502.       3502.       3502.       3500.       3500.       3500.       3501.    
        3501.       3501.       3503.       3503.       3503.       3504.       3504.       3504.       3505.       3505.    
        3505.       3507.       3507.       3507.       3507.       3509.       3509.       3509.       3507.       3507.    
        3507.       3507.       3507.       3507.       3508.       3508.       3508.       3508.       3508.       3508.    
        3506.       3506.       3506.       3506.       3506.       3506.       3507.       3507.       3507.       3508.    
        3508.       3508.       3511.       3511.       3511.       3513.       3513.       3513.       3515.       3515.    
        3515.       3517.       3517.       3517.       3518.       3518.       3518.       3517.       3517.       3517.    
        3517.       3517.       3517.       3516.       3516.       3516.       3518.       3518.       3518.       3521.    
        3521.       3521.       3521.       3522.       3522.       3522.       3527.       3527.       3527.       3527.    
        3527.       3527.       3529.       3529.       3529.       3531.       3531.       3531.       3533.       3533.    
        3533.       3536.       3536.       3536.       3541.       3541.       3541.       3543.       3543.       3543.    
        3543.       3543.       3543.       3541.       3541.       3540.       3540.       3541.       3541.       3539.    
        3539.       3539.       3544.       3546.       3546.       3545.       3545.       3547.       3547.       3546.    
        3548.       3550.       3550.       3551.       3551.       3552.    
  28    3495.       3492.       3491.       3489.       3489.       3491.       3491.       3490.       3490.       3490.    
        3489.       3491.       3494.       3495.       3497.       3497.       3497.       3497.       3497.       3496.    
        3496.       3496.       3496.       3495.       3495.       3495.       3498.       3498.       3498.       3500.    
        3500.       3500.       3500.       3500.       3500.       3499.       3499.       3499.       3501.       3501.    
        3501.       3500.       3500.       3500.       3498.       3498.       3498.       3500.       3500.       3500.    
        3501.       3501.       3501.       3502.       3502.       3502.       3501.       3501.       3501.       3501.    
        3501.       3501.       3503.       3503.       3503.       3505.       3505.       3505.       3505.       3505.    
        3505.       3505.       3505.       3505.       3505.       3505.       3505.       3505.       3506.       3506.    
        3506.       3507.       3507.       3507.       3509.       3509.       3509.       3510.       3510.       3510.    
        3509.       3509.       3509.       3509.       3509.       3509.       3510.       3510.       3510.       3510.    
        3510.       3510.       3511.       3511.       3511.       3513.       3513.       3513.       3513.       3513.    
        3513.       3515.       3515.       3515.       3518.       3518.       3518.       3517.       3517.       3517.    
        3516.       3516.       3516.       3516.       3516.       3516.       3520.       3520.       3520.       3523.    
        3523.       3523.       3523.       3525.       3525.       3525.       3527.       3527.       3527.       3530.    
        3530.       3530.       3531.       3531.       3531.       3531.       3531.       3531.       3532.       3532.    
        3532.       3535.       3535.       3535.       3537.       3537.       3537.       3541.       3541.       3541.    
        3543.       3543.       3543.       3542.       3542.       3539.       3539.       3541.       3543.       3543.    
        3543.       3543.       3545.       3546.       3545.       3543.       3543.       3545.       3548.       3546.    
        3546.       3545.       3545.       3547.       3548.       3549.    
  29    3495.       3492.       3491.       3489.       3489.       3491.       3491.       3490.       3490.       3490.    
        3489.       3491.       3494.       3495.       3497.       3497.       3497.       3497.       3497.       3496.    
        3496.       3496.       3496.       3495.       3495.       3495.       3498.       3498.       3498.       3500.    
        3500.       3500.       3500.       3500.       3500.       3499.       3499.       3499.       3501.       3501.    
        3501.       3500.       3500.       3500.       3498.       3498.       3498.       3500.       3500.       3500.    
        3501.       3501.       3501.       3502.       3502.       3502.       3501.       3501.       3501.       3501.    
        3501.       3501.       3503.       3503.       3503.       3505.       3505.       3505.       3505.       3505.    
        3505.       3505.       3505.       3505.       3505.       3505.       3505.       3505.       3506.       3506.    
        3506.       3507.       3507.       3507.       3509.       3509.       3509.       3510.       3510.       3510.    
        3509.       3509.       3509.       3509.       3509.       3509.       3510.       3510.       3510.       3510.    
        3510.       3510.       3511.       3511.       3511.       3513.       3513.       3513.       3513.       3513.    
        3513.       3515.       3515.       3515.       3518.       3518.       3518.       3517.       3517.       3517.    
        3516.       3516.       3516.       3516.       3516.       3516.       3520.       3520.       3520.       3523.    
        3523.       3523.       3523.       3525.       3525.       3525.       3527.       3527.       3527.       3530.    
        3530.       3530.       3531.       3531.       3531.       3531.       3531.       3531.       3532.       3532.    
        3532.       3535.       3535.       3535.       3537.       3537.       3537.       3541.       3541.       3541.    
        3543.       3543.       3543.       3542.       3542.       3539.       3539.       3541.       3543.       3543.    
        3543.       3543.       3545.       3546.       3545.       3543.       3543.       3545.       3548.       3546.    
        3546.       3545.       3545.       3547.       3548.       3549.    
  30    3495.       3492.       3491.       3489.       3489.       3491.       3491.       3490.       3490.       3490.    
        3489.       3491.       3494.       3495.       3497.       3497.       3497.       3497.       3497.       3496.    
        3496.       3496.       3496.       3495.       3495.       3495.       3498.       3498.       3498.       3500.    
        3500.       3500.       3500.       3500.       3500.       3499.       3499.       3499.       3501.       3501.    
        3501.       3500.       3500.       3500.       3498.       3498.       3498.       3500.       3500.       3500.    
        3501.       3501.       3501.       3502.       3502.       3502.       3501.       3501.       3501.       3501.    
        3501.       3501.       3503.       3503.       3503.       3505.       3505.       3505.       3505.       3505.    
        3505.       3505.       3505.       3505.       3505.       3505.       3505.       3505.       3506.       3506.    
        3506.       3507.       3507.       3507.       3509.       3509.       3509.       3510.       3510.       3510.    
        3509.       3509.       3509.       3509.       3509.       3509.       3510.       3510.       3510.       3510.    
        3510.       3510.       3511.       3511.       3511.       3513.       3513.       3513.       3513.       3513.    
        3513.       3515.       3515.       3515.       3518.       3518.       3518.       3517.       3517.       3517.    
        3516.       3516.       3516.       3516.       3516.       3516.       3520.       3520.       3520.       3523.    
        3523.       3523.       3523.       3525.       3525.       3525.       3527.       3527.       3527.       3530.    
        3530.       3530.       3531.       3531.       3531.       3531.       3531.       3531.       3532.       3532.    
        3532.       3535.       3535.       3535.       3537.       3537.       3537.       3541.       3541.       3541.    
        3543.       3543.       3543.       3542.       3542.       3539.       3539.       3541.       3543.       3543.    
        3543.       3543.       3545.       3546.       3545.       3543.       3543.       3545.       3548.       3546.    
        3546.       3545.       3545.       3547.       3548.       3549.    
  31    3497.       3495.       3494.       3492.       3492.       3492.       3491.       3491.       3488.       3488.    
        3487.       3490.       3497.       3501.       3500.       3500.       3497.       3497.       3497.       3497.    
        3497.       3497.       3497.       3498.       3498.       3498.       3503.       3503.       3503.       3503.    
        3503.       3503.       3500.       3500.       3500.       3499.       3499.       3499.       3500.       3500.    
        3500.       3499.       3499.       3499.       3499.       3499.       3499.       3502.       3502.       3502.    
        3504.       3504.       3504.       3503.       3503.       3503.       3502.       3502.       3502.       3502.    
        3502.       3502.       3503.       3503.       3503.       3505.       3505.       3505.       3506.       3506.    
        3506.       3507.       3507.       3507.       3507.       3507.       3507.       3507.       3507.       3507.    
        3507.       3508.       3508.       3508.       3510.       3510.       3510.       3511.       3511.       3511.    
        3511.       3511.       3511.       3511.       3511.       3511.       3512.       3512.       3512.       3513.    
        3513.       3513.       3512.       3512.       3512.       3511.       3511.       3511.       3513.       3513.    
        3513.       3516.       3516.       3516.       3517.       3517.       3517.       3516.       3516.       3516.    
        3517.       3517.       3517.       3520.       3520.       3520.       3522.       3522.       3522.       3522.    
        3522.       3522.       3522.       3522.       3522.       3522.       3526.       3526.       3526.       3530.    
        3530.       3530.       3530.       3530.       3530.       3529.       3529.       3529.       3530.       3530.    
        3530.       3533.       3533.       3533.       3538.       3538.       3538.       3541.       3541.       3541.    
        3541.       3541.       3541.       3539.       3539.       3539.       3539.       3540.       3543.       3545.    
        3546.       3546.       3544.       3544.       3544.       3544.       3544.       3545.       3548.       3548.    
        3547.       3549.       3549.       3550.       3550.       3549.    
  32    3497.       3495.       3494.       3492.       3492.       3492.       3491.       3491.       3488.       3488.    
        3487.       3490.       3497.       3501.       3500.       3500.       3497.       3497.       3497.       3497.    
        3497.       3497.       3497.       3498.       3498.       3498.       3503.       3503.       3503.       3503.    
        3503.       3503.       3500.       3500.       3500.       3499.       3499.       3499.       3500.       3500.    
        3500.       3499.       3499.       3499.       3499.       3499.       3499.       3502.       3502.       3502.    
        3504.       3504.       3504.       3503.       3503.       3503.       3502.       3502.       3502.       3502.    
        3502.       3502.       3503.       3503.       3503.       3505.       3505.       3505.       3506.       3506.    
        3506.       3507.       3507.       3507.       3507.       3507.       3507.       3507.       3507.       3507.    
        3507.       3508.       3508.       3508.       3510.       3510.       3510.       3511.       3511.       3511.    
        3511.       3511.       3511.       3511.       3511.       3511.       3512.       3512.       3512.       3513.    
        3513.       3513.       3512.       3512.       3512.       3511.       3511.       3511.       3513.       3513.    
        3513.       3516.       3516.       3516.       3517.       3517.       3517.       3516.       3516.       3516.    
        3517.       3517.       3517.       3520.       3520.       3520.       3522.       3522.       3522.       3522.    
        3522.       3522.       3522.       3522.       3522.       3522.       3526.       3526.       3526.       3530.    
        3530.       3530.       3530.       3530.       3530.       3529.       3529.       3529.       3530.       3530.    
        3530.       3533.       3533.       3533.       3538.       3538.       3538.       3541.       3541.       3541.    
        3541.       3541.       3541.       3539.       3539.       3539.       3539.       3540.       3543.       3545.    
        3546.       3546.       3544.       3544.       3544.       3544.       3544.       3545.       3548.       3548.    
        3547.       3549.       3549.       3550.       3550.       3549.    
  33    3497.       3495.       3494.       3492.       3492.       3492.       3491.       3491.       3488.       3488.    
        3487.       3490.       3497.       3501.       3500.       3500.       3497.       3497.       3497.       3497.    
        3497.       3497.       3497.       3498.       3498.       3498.       3503.       3503.       3503.       3503.    
        3503.       3503.       3500.       3500.       3500.       3499.       3499.       3499.       3500.       3500.    
        3500.       3499.       3499.       3499.       3499.       3499.       3499.       3502.       3502.       3502.    
        3504.       3504.       3504.       3503.       3503.       3503.       3502.       3502.       3502.       3502.    
        3502.       3502.       3503.       3503.       3503.       3505.       3505.       3505.       3506.       3506.    
        3506.       3507.       3507.       3507.       3507.       3507.       3507.       3507.       3507.       3507.    
        3507.       3508.       3508.       3508.       3510.       3510.       3510.       3511.       3511.       3511.    
        3511.       3511.       3511.       3511.       3511.       3511.       3512.       3512.       3512.       3513.    
        3513.       3513.       3512.       3512.       3512.       3511.       3511.       3511.       3513.       3513.    
        3513.       3516.       3516.       3516.       3517.       3517.       3517.       3516.       3516.       3516.    
        3517.       3517.       3517.       3520.       3520.       3520.       3522.       3522.       3522.       3522.    
        3522.       3522.       3522.       3522.       3522.       3522.       3526.       3526.       3526.       3530.    
        3530.       3530.       3530.       3530.       3530.       3529.       3529.       3529.       3530.       3530.    
        3530.       3533.       3533.       3533.       3538.       3538.       3538.       3541.       3541.       3541.    
        3541.       3541.       3541.       3539.       3539.       3539.       3539.       3540.       3543.       3545.    
        3546.       3546.       3544.       3544.       3544.       3544.       3544.       3545.       3548.       3548.    
        3547.       3549.       3549.       3550.       3550.       3549.    
  34    3504.       3498.       3496.       3493.       3493.       3493.       3493.       3488.       3488.       3488.    
        3486.       3489.       3494.       3498.       3497.       3497.       3497.       3497.       3497.       3494.    
        3494.       3494.       3494.       3494.       3494.       3494.       3500.       3500.       3500.       3502.    
        3502.       3502.       3500.       3500.       3500.       3499.       3499.       3499.       3502.       3502.    
        3502.       3504.       3504.       3504.       3502.       3502.       3502.       3501.       3501.       3501.    
        3502.       3502.       3502.       3504.       3504.       3504.       3503.       3503.       3503.       3504.    
        3504.       3504.       3506.       3506.       3506.       3508.       3508.       3508.       3511.       3511.    
        3511.       3510.       3510.       3510.       3510.       3511.       3511.       3511.       3511.       3511.    
        3511.       3511.       3511.       3511.       3510.       3510.       3510.       3511.       3511.       3511.    
        3512.       3512.       3512.       3513.       3513.       3513.       3514.       3514.       3514.       3515.    
        3515.       3515.       3515.       3515.       3515.       3516.       3516.       3516.       3518.       3518.    
        3518.       3521.       3521.       3521.       3521.       3521.       3521.       3521.       3521.       3521.    
        3523.       3523.       3523.       3525.       3525.       3525.       3524.       3524.       3524.       3520.    
        3520.       3520.       3520.       3520.       3520.       3520.       3524.       3524.       3524.       3529.    
        3529.       3529.       3530.       3530.       3530.       3530.       3530.       3530.       3531.       3531.    
        3531.       3530.       3530.       3530.       3531.       3531.       3531.       3535.       3535.       3535.    
        3537.       3537.       3537.       3539.       3539.       3540.       3540.       3542.       3544.       3544.    
        3546.       3546.       3546.       3546.       3545.       3546.       3546.       3551.       3553.       3551.    
        3550.       3551.       3551.       3552.       3553.       3553.    
  35    3504.       3498.       3496.       3493.       3493.       3493.       3493.       3488.       3488.       3488.    
        3486.       3489.       3494.       3498.       3497.       3497.       3497.       3497.       3497.       3494.    
        3494.       3494.       3494.       3494.       3494.       3494.       3500.       3500.       3500.       3502.    
        3502.       3502.       3500.       3500.       3500.       3499.       3499.       3499.       3502.       3502.    
        3502.       3504.       3504.       3504.       3502.       3502.       3502.       3501.       3501.       3501.    
        3502.       3502.       3502.       3504.       3504.       3504.       3503.       3503.       3503.       3504.    
        3504.       3504.       3506.       3506.       3506.       3508.       3508.       3508.       3511.       3511.    
        3511.       3510.       3510.       3510.       3510.       3511.       3511.       3511.       3511.       3511.    
        3511.       3511.       3511.       3511.       3510.       3510.       3510.       3511.       3511.       3511.    
        3512.       3512.       3512.       3513.       3513.       3513.       3514.       3514.       3514.       3515.    
        3515.       3515.       3515.       3515.       3515.       3516.       3516.       3516.       3518.       3518.    
        3518.       3521.       3521.       3521.       3521.       3521.       3521.       3521.       3521.       3521.    
        3523.       3523.       3523.       3525.       3525.       3525.       3524.       3524.       3524.       3520.    
        3520.       3520.       3520.       3520.       3520.       3520.       3524.       3524.       3524.       3529.    
        3529.       3529.       3530.       3530.       3530.       3530.       3530.       3530.       3531.       3531.    
        3531.       3530.       3530.       3530.       3531.       3531.       3531.       3535.       3535.       3535.    
        3537.       3537.       3537.       3539.       3539.       3540.       3540.       3542.       3544.       3544.    
        3546.       3546.       3546.       3546.       3545.       3546.       3546.       3551.       3553.       3551.    
        3550.       3551.       3551.       3552.       3553.       3553.    
  36    3504.       3498.       3496.       3493.       3493.       3493.       3493.       3488.       3488.       3488.    
        3486.       3489.       3494.       3498.       3497.       3497.       3497.       3497.       3497.       3494.    
        3494.       3494.       3494.       3494.       3494.       3494.       3500.       3500.       3500.       3502.    
        3502.       3502.       3500.       3500.       3500.       3499.       3499.       3499.       3502.       3502.    
        3502.       3504.       3504.       3504.       3502.       3502.       3502.       3501.       3501.       3501.    
        3502.       3502.       3502.       3504.       3504.       3504.       3503.       3503.       3503.       3504.    
        3504.       3504.       3506.       3506.       3506.       3508.       3508.       3508.       3511.       3511.    
        3511.       3510.       3510.       3510.       3510.       3511.       3511.       3511.       3511.       3511.    
        3511.       3511.       3511.       3511.       3510.       3510.       3510.       3511.       3511.       3511.    
        3512.       3512.       3512.       3513.       3513.       3513.       3514.       3514.       3514.       3515.    
        3515.       3515.       3515.       3515.       3515.       3516.       3516.       3516.       3518.       3518.    
        3518.       3521.       3521.       3521.       3521.       3521.       3521.       3521.       3521.       3521.    
        3523.       3523.       3523.       3525.       3525.       3525.       3524.       3524.       3524.       3524.    
        3520.       3520.       3520.       3520.       3520.       3520.       3524.       3524.       3524.       3529.    
        3529.       3529.       3530.       3530.       3530.       3530.       3530.       3530.       3531.       3531.    
        3531.       3530.       3530.       3530.       3531.       3531.       3531.       3535.       3535.       3535.    
        3537.       3537.       3537.       3539.       3539.       3540.       3540.       3542.       3544.       3544.    
        3546.       3546.       3546.       3546.       3545.       3546.       3546.       3551.       3553.       3551.    
        3550.       3551.       3551.       3552.       3553.       3553.    
  37    3509.       3504.       3498.       3496.       3496.       3496.       3494.       3491.       3490.       3490.    
        3487.       3488.       3493.       3494.       3494.       3494.       3496.       3496.       3496.       3493.    
        3493.       3493.       3493.       3491.       3491.       3491.       3494.       3494.       3494.       3496.    
        3496.       3496.       3497.       3497.       3497.       3497.       3497.       3497.       3500.       3500.    
        3500.       3502.       3502.       3502.       3501.       3501.       3501.       3502.       3502.       3502.    
        3504.       3504.       3504.       3505.       3505.       3505.       3507.       3507.       3507.       3508.    
        3508.       3508.       3510.       3510.       3510.       3511.       3511.       3511.       3512.       3512.    
        3512.       3511.       3511.       3511.       3511.       3511.       3511.       3511.       3511.       3511.    
        3511.       3512.       3512.       3512.       3512.       3512.       3512.       3512.       3512.       3512.    
        3514.       3514.       3514.       3515.       3515.       3515.       3516.       3516.       3516.       3517.    
        3517.       3517.       3517.       3517.       3517.       3518.       3518.       3518.       3518.       3518.    
        3518.       3519.       3519.       3519.       3520.       3520.       3520.       3521.       3521.       3521.    
        3522.       3522.       3522.       3525.       3525.       3525.       3526.       3526.       3526.       3525.    
        3525.       3525.       3525.       3524.       3524.       3524.       3527.       3527.       3527.       3529.    
        3529.       3529.       3530.       3530.       3530.       3530.       3530.       3530.       3530.       3530.    
        3530.       3530.       3530.       3530.       3529.       3529.       3529.       3531.       3531.       3531.    
        3533.       3533.       3533.       3538.       3538.       3541.       3541.       3540.       3540.       3542.    
        3544.       3544.       3545.       3549.       3550.       3552.       3552.       3552.       3553.       3550.    
        3549.       3551.       3551.       3551.       3553.       3555.    
  38    3509.       3504.       3498.       3496.       3496.       3496.       3494.       3491.       3490.       3490.    
        3487.       3488.       3493.       3494.       3494.       3494.       3496.       3496.       3496.       3493.    
        3493.       3493.       3493.       3491.       3491.       3491.       3494.       3494.       3494.       3496.    
        3496.       3496.       3497.       3497.       3497.       3497.       3497.       3497.       3500.       3500.    
        3500.       3502.       3502.       3502.       3501.       3501.       3501.       3502.       3502.       3502.    
        3504.       3504.       3504.       3505.       3505.       3505.       3507.       3507.       3507.       3508.    
        3508.       3508.       3510.       3510.       3510.       3511.       3511.       3511.       3512.       3512.    
        3512.       3511.       3511.       3511.       3511.       3511.       3511.       3511.       3511.       3511.    
        3511.       3512.       3512.       3512.       3512.       3512.       3512.       3512.       3512.       3512.    
        3514.       3514.       3514.       3515.       3515.       3515.       3516.       3516.       3516.       3517.    
        3517.       3517.       3517.       3517.       3517.       3518.       3518.       3518.       3518.       3518.    
        3518.       3519.       3519.       3519.       3520.       3520.       3520.       3521.       3521.       3521.    
        3522.       3522.       3522.       3525.       3525.       3525.       3526.       3526.       3526.       3525.    
        3525.       3525.       3525.       3524.       3524.       3524.       3527.       3527.       3527.       3529.    
        3529.       3529.       3530.       3530.       3530.       3530.       3530.       3530.       3530.       3530.    
        3530.       3530.       3530.       3530.       3529.       3529.       3529.       3531.       3531.       3531.    
        3533.       3533.       3533.       3538.       3538.       3541.       3541.       3540.       3540.       3542.    
        3544.       3544.       3545.       3549.       3550.       3552.       3552.       3552.       3553.       3550.    
        3549.       3551.       3551.       3551.       3553.       3555.    
  39    3509.       3504.       3498.       3496.       3496.       3496.       3494.       3491.       3490.       3490.    
        3487.       3488.       3493.       3494.       3494.       3494.       3496.       3496.       3496.       3493.    
        3493.       3493.       3493.       3491.       3491.       3491.       3494.       3494.       3494.       3496.    
        3496.       3496.       3497.       3497.       3497.       3497.       3497.       3497.       3500.       3500.    
        3500.       3502.       3502.       3502.       3501.       3501.       3501.       3502.       3502.       3502.    
        3504.       3504.       3504.       3505.       3505.       3505.       3507.       3507.       3507.       3508.    
        3508.       3508.       3510.       3510.       3510.       3511.       3511.       3511.       3512.       3512.    
        3512.       3511.       3511.       3511.       3511.       3511.       3511.       3511.       3511.       3511.    
        3511.       3512.       3512.       3512.       3512.       3512.       3512.       3512.       3512.       3512.    
        3514.       3514.       3514.       3515.       3515.       3515.       3516.       3516.       3516.       3517.    
        3517.       3517.       3517.       3517.       3517.       3518.       3518.       3518.       3518.       3518.    
        3518.       3519.       3519.       3519.       3520.       3520.       3520.       3521.       3521.       3521.    
        3522.       3522.       3522.       3525.       3525.       3525.       3526.       3526.       3526.       3525.    
        3525.       3525.       3525.       3524.       3524.       3524.       3527.       3527.       3527.       3529.    
        3529.       3529.       3530.       3530.       3530.       3530.       3530.       3530.       3530.       3530.    
        3530.       3530.       3530.       3530.       3529.       3529.       3529.       3531.       3531.       3531.    
        3533.       3533.       3533.       3538.       3538.       3541.       3541.       3540.       3540.       3542.    
        3544.       3544.       3545.       3549.       3550.       3552.       3552.       3552.       3553.       3550.    
        3549.       3551.       3551.       3551.       3553.       3555.    
  40    3518.       3512.       3504.       3497.       3497.       3497.       3496.       3496.       3490.       3490.    
        3493.       3495.       3489.       3493.       3495.       3495.       3493.       3493.       3493.       3495.    
        3495.       3495.       3495.       3490.       3490.       3490.       3490.       3490.       3490.       3493.    
        3493.       3493.       3494.       3494.       3494.       3499.       3499.       3499.       3501.       3501.    
        3501.       3502.       3502.       3502.       3501.       3501.       3501.       3501.       3501.       3501.    
        3501.       3501.       3501.       3504.       3504.       3504.       3505.       3505.       3505.       3506.    
        3506.       3506.       3506.       3506.       3506.       3507.       3507.       3507.       3506.       3506.    
        3506.       3506.       3506.       3506.       3506.       3508.       3508.       3508.       3509.       3509.    
        3509.       3509.       3509.       3509.       3509.       3509.       3509.       3510.       3510.       3510.    
        3514.       3514.       3514.       3515.       3515.       3515.       3515.       3515.       3515.       3515.    
        3515.       3515.       3517.       3517.       3517.       3516.       3516.       3516.       3516.       3516.    
        3516.       3516.       3516.       3516.       3516.       3516.       3516.       3517.       3517.       3517.    
        3519.       3519.       3519.       3521.       3521.       3521.       3522.       3522.       3522.       3523.    
        3523.       3523.       3523.       3523.       3523.       3523.       3523.       3523.       3523.       3526.    
        3526.       3526.       3529.       3529.       3529.       3531.       3531.       3531.       3531.       3531.    
        3531.       3532.       3532.       3532.       3533.       3533.       3533.       3534.       3534.       3534.    
        3536.       3536.       3536.       3540.       3540.       3540.       3540.       3540.       3542.       3545.    
        3544.       3544.       3544.       3547.       3545.       3550.       3550.       3552.       3552.       3550.    
        3548.       3549.       3549.       3550.       3552.       3554.    
  41    3518.       3512.       3504.       3497.       3497.       3497.       3496.       3496.       3490.       3490.    
        3493.       3495.       3489.       3493.       3495.       3495.       3493.       3493.       3493.       3495.    
        3495.       3495.       3495.       3490.       3490.       3490.       3490.       3490.       3490.       3493.    
        3493.       3493.       3494.       3494.       3494.       3499.       3499.       3499.       3501.       3501.    
        3501.       3502.       3502.       3502.       3501.       3501.       3501.       3501.       3501.       3501.    
        3501.       3501.       3501.       3504.       3504.       3504.       3505.       3505.       3505.       3506.    
        3506.       3506.       3506.       3506.       3506.       3507.       3507.       3507.       3506.       3506.    
        3506.       3506.       3506.       3506.       3506.       3508.       3508.       3508.       3509.       3509.    
        3509.       3509.       3509.       3509.       3509.       3509.       3509.       3510.       3510.       3510.    
        3514.       3514.       3514.       3515.       3515.       3515.       3515.       3515.       3515.       3515.    
        3515.       3515.       3517.       3517.       3517.       3516.       3516.       3516.       3516.       3516.    
        3516.       3516.       3516.       3516.       3516.       3516.       3516.       3517.       3517.       3517.    
        3519.       3519.       3519.       3521.       3521.       3521.       3522.       3522.       3522.       3523.    
        3523.       3523.       3523.       3523.       3523.       3523.       3523.       3523.       3523.       3526.    
        3526.       3526.       3529.       3529.       3529.       3531.       3531.       3531.       3531.       3531.    
        3531.       3532.       3532.       3532.       3533.       3533.       3533.       3534.       3534.       3534.    
        3536.       3536.       3536.       3540.       3540.       3540.       3540.       3540.       3542.       3545.    
        3544.       3544.       3544.       3547.       3545.       3550.       3550.       3552.       3552.       3550.    
        3548.       3549.       3549.       3550.       3552.       3554.    
  42    3518.       3512.       3504.       3497.       3497.       3497.       3496.       3496.       3490.       3490.    
        3493.       3495.       3489.       3493.       3495.       3495.       3493.       3493.       3493.       3495.    
        3495.       3495.       3495.       3490.       3490.       3490.       3490.       3490.       3490.       3493.    
        3493.       3493.       3494.       3494.       3494.       3499.       3499.       3499.       3501.       3501.    
        3501.       3502.       3502.       3502.       3501.       3501.       3501.       3501.       3501.       3501.    
        3501.       3501.       3501.       3504.       3504.       3504.       3505.       3505.       3505.       3506.    
        3506.       3506.       3506.       3506.       3506.       3507.       3507.       3507.       3506.       3506.    
        3506.       3506.       3506.       3506.       3506.       3508.       3508.       3508.       3509.       3509.    
        3509.       3509.       3509.       3509.       3509.       3509.       3509.       3510.       3510.       3510.    
        3514.       3514.       3514.       3515.       3515.       3515.       3515.       3515.       3515.       3515.    
        3515.       3515.       3517.       3517.       3517.       3516.       3516.       3516.       3516.       3516.    
        3516.       3516.       3516.       3516.       3516.       3516.       3516.       3517.       3517.       3517.    
        3519.       3519.       3519.       3521.       3521.       3521.       3522.       3522.       3522.       3523.    
        3523.       3523.       3523.       3523.       3523.       3523.       3523.       3523.       3523.       3526.    
        3526.       3526.       3529.       3529.       3529.       3531.       3531.       3531.       3531.       3531.    
        3531.       3532.       3532.       3532.       3533.       3533.       3533.       3534.       3534.       3534.    
        3536.       3536.       3536.       3540.       3540.       3540.       3540.       3540.       3542.       3545.    
        3544.       3544.       3544.       3547.       3545.       3550.       3550.       3552.       3552.       3550.    
        3548.       3549.       3549.       3550.       3552.       3554.    
  43    3518.       3512.       3504.       3497.       3497.       3497.       3496.       3496.       3490.       3490.    
        3493.       3495.       3489.       3493.       3495.       3495.       3493.       3493.       3493.       3495.    
        3495.       3495.       3495.       3490.       3490.       3490.       3490.       3490.       3490.       3493.    
        3493.       3493.       3494.       3494.       3494.       3499.       3499.       3499.       3501.       3501.    
        3501.       3502.       3502.       3502.       3501.       3501.       3501.       3501.       3501.       3501.    
        3501.       3501.       3501.       3504.       3504.       3504.       3505.       3505.       3505.       3506.    
        3506.       3506.       3506.       3506.       3506.       3507.       3507.       3507.       3506.       3506.    
        3506.       3506.       3506.       3506.       3506.       3508.       3508.       3508.       3509.       3509.    
        3509.       3509.       3509.       3509.       3509.       3509.       3509.       3510.       3510.       3510.    
        3514.       3514.       3514.       3515.       3515.       3515.       3515.       3515.       3515.       3515.    
        3515.       3515.       3517.       3517.       3517.       3516.       3516.       3516.       3516.       3516.    
        3516.       3516.       3516.       3516.       3516.       3516.       3516.       3517.       3517.       3517.    
        3519.       3519.       3519.       3521.       3521.       3521.       3522.       3522.       3522.       3523.    
        3523.       3523.       3523.       3523.       3523.       3523.       3523.       3523.       3523.       3526.    
        3526.       3526.       3529.       3529.       3529.       3531.       3531.       3531.       3531.       3531.    
        3531.       3532.       3532.       3532.       3533.       3533.       3533.       3534.       3534.       3534.    
        3536.       3536.       3536.       3540.       3540.       3540.       3540.       3540.       3542.       3545.    
        3544.       3544.       3544.       3547.       3545.       3550.       3550.       3552.       3552.       3550.    
        3548.       3549.       3549.       3550.       3552.       3554.    
  44    3522.       3515.       3507.       3496.       3496.       3496.       3500.       3503.       3498.       3498.    
        3493.       3490.       3498.       3495.       3496.       3496.       3493.       3493.       3493.       3494.    
        3494.       3494.       3494.       3494.       3494.       3494.       3493.       3493.       3493.       3494.    
        3494.       3494.       3498.       3498.       3498.       3499.       3499.       3499.       3499.       3499.    
        3499.       3501.       3501.       3501.       3502.       3502.       3502.       3502.       3502.       3502.    
        3502.       3502.       3502.       3505.       3505.       3505.       3507.       3507.       3507.       3509.    
        3509.       3509.       3509.       3509.       3509.       3510.       3510.       3510.       3509.       3509.    
        3509.       3509.       3509.       3509.       3509.       3510.       3510.       3510.       3511.       3511.    
        3511.       3509.       3509.       3509.       3509.       3509.       3509.       3511.       3511.       3511.    
        3513.       3513.       3513.       3513.       3513.       3513.       3516.       3516.       3516.       3517.    
        3517.       3517.       3517.       3517.       3517.       3516.       3516.       3516.       3515.       3515.    
        3515.       3515.       3515.       3515.       3515.       3515.       3515.       3513.       3513.       3513.    
        3513.       3513.       3513.       3515.       3515.       3515.       3517.       3517.       3517.       3519.    
        3519.       3519.       3519.       3520.       3520.       3520.       3519.       3519.       3519.       3521.    
        3521.       3521.       3524.       3524.       3524.       3529.       3529.       3529.       3531.       3531.    
        3531.       3533.       3533.       3533.       3534.       3534.       3534.       3536.       3536.       3536.    
        3539.       3539.       3539.       3540.       3540.       3539.       3539.       3539.       3541.       3546.    
        3548.       3548.       3550.       3552.       3553.       3551.       3551.       3550.       3550.       3551.    
        3550.       3550.       3550.       3550.       3552.       3555.    
  45    3522.       3515.       3507.       3496.       3496.       3496.       3500.       3503.       3498.       3498.    
        3493.       3490.       3498.       3495.       3496.       3496.       3493.       3493.       3493.       3494.    
        3494.       3494.       3494.       3494.       3494.       3494.       3493.       3493.       3493.       3494.    
        3494.       3494.       3498.       3498.       3498.       3499.       3499.       3499.       3499.       3499.    
        3499.       3501.       3501.       3501.       3502.       3502.       3502.       3502.       3502.       3502.    
        3502.       3502.       3502.       3505.       3505.       3505.       3507.       3507.       3507.       3509.    
        3509.       3509.       3509.       3509.       3509.       3510.       3510.       3510.       3509.       3509.    
        3509.       3509.       3509.       3509.       3509.       3510.       3510.       3510.       3511.       3511.    
        3511.       3509.       3509.       3509.       3509.       3509.       3509.       3511.       3511.       3511.    
        3513.       3513.       3513.       3513.       3513.       3513.       3516.       3516.       3516.       3517.    
        3517.       3517.       3517.       3517.       3517.       3516.       3516.       3516.       3515.       3515.    
        3515.       3515.       3515.       3515.       3515.       3515.       3515.       3513.       3513.       3513.    
        3513.       3513.       3513.       3515.       3515.       3515.       3517.       3517.       3517.       3519.    
        3519.       3519.       3519.       3520.       3520.       3520.       3519.       3519.       3519.       3521.    
        3521.       3521.       3524.       3524.       3524.       3529.       3529.       3529.       3531.       3531.    
        3531.       3533.       3533.       3533.       3534.       3534.       3534.       3536.       3536.       3536.    
        3539.       3539.       3539.       3540.       3540.       3539.       3539.       3539.       3541.       3546.    
        3548.       3548.       3550.       3552.       3553.       3551.       3551.       3550.       3550.       3551.    
        3550.       3550.       3550.       3550.       3552.       3555.    
  46    3522.       3515.       3507.       3496.       3496.       3496.       3500.       3503.       3498.       3498.    
        3493.       3490.       3498.       3495.       3496.       3496.       3493.       3493.       3493.       3494.    
        3494.       3494.       3494.       3494.       3494.       3494.       3493.       3493.       3493.       3494.    
        3494.       3494.       3498.       3498.       3498.       3499.       3499.       3499.       3499.       3499.    
        3499.       3501.       3501.       3501.       3502.       3502.       3502.       3502.       3502.       3502.    
        3502.       3502.       3502.       3505.       3505.       3505.       3507.       3507.       3507.       3509.    
        3509.       3509.       3509.       3509.       3509.       3510.       3510.       3510.       3509.       3509.    
        3509.       3509.       3509.       3509.       3509.       3510.       3510.       3510.       3511.       3511.    
        3511.       3509.       3509.       3509.       3509.       3509.       3509.       3511.       3511.       3511.    
        3513.       3513.       3513.       3513.       3513.       3513.       3516.       3516.       3516.       3517.    
        3517.       3517.       3517.       3517.       3517.       3516.       3516.       3516.       3515.       3515.    
        3515.       3515.       3515.       3515.       3515.       3515.       3515.       3513.       3513.       3513.    
        3513.       3513.       3513.       3515.       3515.       3515.       3517.       3517.       3517.       3519.    
        3519.       3519.       3519.       3520.       3520.       3520.       3519.       3519.       3519.       3521.    
        3521.       3521.       3524.       3524.       3524.       3529.       3529.       3529.       3531.       3531.    
        3531.       3533.       3533.       3533.       3534.       3534.       3534.       3536.       3536.       3536.    
        3539.       3539.       3539.       3540.       3540.       3539.       3539.       3539.       3541.       3546.    
        3548.       3548.       3550.       3552.       3553.       3551.       3551.       3550.       3550.       3551.    
        3550.       3550.       3550.       3550.       3552.       3555.    
  47    3524.       3518.       3511.       3503.       3503.       3500.       3503.       3507.       3502.       3502.    
        3496.       3495.       3495.       3495.       3497.       3497.       3496.       3496.       3496.       3495.    
        3495.       3495.       3495.       3497.       3497.       3497.       3497.       3497.       3497.       3497.    
        3497.       3497.       3499.       3499.       3499.       3500.       3500.       3500.       3500.       3500.    
        3500.       3499.       3499.       3499.       3499.       3499.       3499.       3501.       3501.       3501.    
        3502.       3502.       3502.       3503.       3503.       3503.       3504.       3504.       3504.       3505.    
        3505.       3505.       3506.       3506.       3506.       3507.       3507.       3507.       3507.       3507.    
        3507.       3508.       3508.       3508.       3508.       3508.       3508.       3508.       3509.       3509.    
        3509.       3511.       3511.       3511.       3513.       3513.       3513.       3514.       3514.       3514.    
        3514.       3514.       3514.       3513.       3513.       3513.       3515.       3515.       3515.       3517.    
        3517.       3517.       3519.       3519.       3519.       3519.       3519.       3519.       3517.       3517.    
        3517.       3517.       3517.       3517.       3516.       3516.       3516.       3516.       3516.       3516.    
        3517.       3517.       3517.       3519.       3519.       3519.       3521.       3521.       3521.       3523.    
        3523.       3523.       3523.       3523.       3523.       3523.       3523.       3523.       3523.       3524.    
        3524.       3524.       3526.       3526.       3526.       3531.       3531.       3531.       3533.       3533.    
        3533.       3533.       3533.       3533.       3535.       3535.       3535.       3538.       3538.       3538.    
        3538.       3538.       3538.       3538.       3538.       3539.       3539.       3541.       3543.       3544.    
        3547.       3547.       3550.       3552.       3554.       3551.       3551.       3549.       3548.       3549.    
        3549.       3550.       3550.       3550.       3550.       3551.    
  48    3524.       3518.       3511.       3503.       3503.       3500.       3503.       3507.       3502.       3502.    
        3496.       3495.       3495.       3495.       3497.       3497.       3496.       3496.       3496.       3495.    
        3495.       3495.       3495.       3497.       3497.       3497.       3497.       3497.       3497.       3497.    
        3497.       3497.       3499.       3499.       3499.       3500.       3500.       3500.       3500.       3500.    
        3500.       3499.       3499.       3499.       3499.       3499.       3499.       3501.       3501.       3501.    
        3502.       3502.       3502.       3503.       3503.       3503.       3504.       3504.       3504.       3505.    
        3505.       3505.       3506.       3506.       3506.       3507.       3507.       3507.       3507.       3507.    
        3507.       3508.       3508.       3508.       3508.       3508.       3508.       3508.       3509.       3509.    
        3509.       3511.       3511.       3511.       3513.       3513.       3513.       3514.       3514.       3514.    
        3514.       3514.       3514.       3513.       3513.       3513.       3515.       3515.       3515.       3517.    
        3517.       3517.       3519.       3519.       3519.       3519.       3519.       3519.       3517.       3517.    
        3517.       3517.       3517.       3517.       3516.       3516.       3516.       3516.       3516.       3516.    
        3517.       3517.       3517.       3519.       3519.       3519.       3521.       3521.       3521.       3523.    
        3523.       3523.       3523.       3523.       3523.       3523.       3523.       3523.       3523.       3524.    
        3524.       3524.       3526.       3526.       3526.       3531.       3531.       3531.       3533.       3533.    
        3533.       3533.       3533.       3533.       3535.       3535.       3535.       3538.       3538.       3538.    
        3538.       3538.       3538.       3538.       3538.       3539.       3539.       3541.       3543.       3544.    
        3547.       3547.       3550.       3552.       3554.       3551.       3551.       3549.       3548.       3549.    
        3549.       3550.       3550.       3550.       3550.       3551.    
  49    3524.       3518.       3511.       3503.       3503.       3500.       3503.       3507.       3502.       3502.    
        3496.       3495.       3495.       3495.       3497.       3497.       3496.       3496.       3496.       3495.    
        3495.       3495.       3495.       3497.       3497.       3497.       3497.       3497.       3497.       3497.    
        3497.       3497.       3499.       3499.       3499.       3500.       3500.       3500.       3500.       3500.    
        3500.       3499.       3499.       3499.       3499.       3499.       3499.       3501.       3501.       3501.    
        3502.       3502.       3502.       3503.       3503.       3503.       3504.       3504.       3504.       3505.    
        3505.       3505.       3506.       3506.       3506.       3507.       3507.       3507.       3507.       3507.    
        3507.       3508.       3508.       3508.       3508.       3508.       3508.       3508.       3509.       3509.    
        3509.       3511.       3511.       3511.       3513.       3513.       3513.       3514.       3514.       3514.    
        3514.       3514.       3514.       3513.       3513.       3513.       3515.       3515.       3515.       3517.    
        3517.       3517.       3519.       3519.       3519.       3519.       3519.       3519.       3517.       3517.    
        3517.       3517.       3517.       3517.       3516.       3516.       3516.       3516.       3516.       3516.    
        3517.       3517.       3517.       3519.       3519.       3519.       3521.       3521.       3521.       3523.    
        3523.       3523.       3523.       3523.       3523.       3523.       3523.       3523.       3523.       3524.    
        3524.       3524.       3526.       3526.       3526.       3531.       3531.       3531.       3533.       3533.    
        3533.       3533.       3533.       3533.       3535.       3535.       3535.       3538.       3538.       3538.    
        3538.       3538.       3538.       3538.       3538.       3539.       3539.       3541.       3543.       3544.    
        3547.       3547.       3550.       3552.       3554.       3551.       3551.       3549.       3548.       3549.    
        3549.       3550.       3550.       3550.       3550.       3551.    
  50    3525.       3520.       3515.       3507.       3507.       3502.       3501.       3503.       3495.       3495.    
        3492.       3496.       3492.       3492.       3494.       3494.       3494.       3494.       3494.       3494.    
        3494.       3494.       3494.       3496.       3496.       3496.       3495.       3495.       3495.       3495.    
        3495.       3495.       3499.       3499.       3499.       3503.       3503.       3503.       3502.       3502.    
        3502.       3502.       3502.       3502.       3502.       3502.       3502.       3504.       3504.       3504.    
        3505.       3505.       3505.       3506.       3506.       3506.       3506.       3506.       3506.       3507.    
        3507.       3507.       3508.       3508.       3508.       3509.       3509.       3509.       3510.       3510.    
        3510.       3511.       3511.       3511.       3511.       3512.       3512.       3512.       3513.       3513.    
        3513.       3515.       3515.       3515.       3515.       3515.       3515.       3515.       3515.       3515.    
        3515.       3515.       3515.       3515.       3515.       3515.       3515.       3515.       3515.       3515.    
        3515.       3515.       3516.       3516.       3516.       3516.       3516.       3516.       3519.       3519.    
        3519.       3521.       3521.       3521.       3520.       3520.       3520.       3520.       3520.       3520.    
        3522.       3522.       3522.       3522.       3522.       3522.       3521.       3521.       3521.       3522.    
        3522.       3522.       3522.       3522.       3522.       3522.       3523.       3523.       3523.       3524.    
        3524.       3524.       3527.       3527.       3527.       3533.       3533.       3533.       3534.       3534.    
        3534.       3534.       3534.       3534.       3535.       3535.       3535.       3536.       3536.       3536.    
        3538.       3538.       3538.       3538.       3538.       3539.       3539.       3540.       3541.       3541.    
        3543.       3543.       3545.       3548.       3549.       3549.       3549.       3547.       3546.       3547.    
        3547.       3549.       3549.       3548.       3550.       3551.    
  51    3525.       3520.       3515.       3507.       3507.       3502.       3501.       3503.       3495.       3495.    
        3492.       3496.       3492.       3492.       3494.       3494.       3494.       3494.       3494.       3494.    
        3494.       3494.       3494.       3496.       3496.       3496.       3495.       3495.       3495.       3495.    
        3495.       3495.       3499.       3499.       3499.       3503.       3503.       3503.       3502.       3502.    
        3502.       3502.       3502.       3502.       3502.       3502.       3502.       3504.       3504.       3504.    
        3505.       3505.       3505.       3506.       3506.       3506.       3506.       3506.       3506.       3507.    
        3507.       3507.       3508.       3508.       3508.       3509.       3509.       3509.       3510.       3510.    
        3510.       3511.       3511.       3511.       3511.       3512.       3512.       3512.       3513.       3513.    
        3513.       3515.       3515.       3515.       3515.       3515.       3515.       3515.       3515.       3515.    
        3515.       3515.       3515.       3515.       3515.       3515.       3515.       3515.       3515.       3515.    
        3515.       3515.       3516.       3516.       3516.       3516.       3516.       3516.       3519.       3519.    
        3519.       3521.       3521.       3521.       3520.       3520.       3520.       3520.       3520.       3520.    
        3522.       3522.       3522.       3522.       3522.       3522.       3521.       3521.       3521.       3522.    
        3522.       3522.       3522.       3522.       3522.       3522.       3523.       3523.       3523.       3524.    
        3524.       3524.       3527.       3527.       3527.       3533.       3533.       3533.       3534.       3534.    
        3534.       3534.       3534.       3534.       3535.       3535.       3535.       3536.       3536.       3536.    
        3538.       3538.       3538.       3538.       3538.       3539.       3539.       3540.       3541.       3541.    
        3543.       3543.       3545.       3548.       3549.       3549.       3549.       3547.       3546.       3547.    
        3547.       3549.       3549.       3548.       3550.       3551.    
  52    3525.       3520.       3515.       3507.       3507.       3502.       3501.       3503.       3495.       3495.    
        3492.       3496.       3492.       3492.       3494.       3494.       3494.       3494.       3494.       3494.    
        3494.       3494.       3494.       3496.       3496.       3496.       3495.       3495.       3495.       3495.    
        3495.       3495.       3499.       3499.       3499.       3503.       3503.       3503.       3502.       3502.    
        3502.       3502.       3502.       3502.       3502.       3502.       3502.       3504.       3504.       3504.    
        3505.       3505.       3505.       3506.       3506.       3506.       3506.       3506.       3506.       3507.    
        3507.       3507.       3508.       3508.       3508.       3509.       3509.       3509.       3510.       3510.    
        3510.       3511.       3511.       3511.       3511.       3512.       3512.       3512.       3513.       3513.    
        3513.       3515.       3515.       3515.       3515.       3515.       3515.       3515.       3515.       3515.    
        3515.       3515.       3515.       3515.       3515.       3515.       3515.       3515.       3515.       3515.    
        3515.       3515.       3516.       3516.       3516.       3516.       3516.       3516.       3519.       3519.    
        3519.       3521.       3521.       3521.       3520.       3520.       3520.       3520.       3520.       3520.    
        3522.       3522.       3522.       3522.       3522.       3522.       3521.       3521.       3521.       3522.    
        3522.       3522.       3522.       3522.       3522.       3522.       3523.       3523.       3523.       3524.    
        3524.       3524.       3527.       3527.       3527.       3533.       3533.       3533.       3534.       3534.    
        3534.       3534.       3534.       3534.       3535.       3535.       3535.       3536.       3536.       3536.    
        3538.       3538.       3538.       3538.       3538.       3539.       3539.       3540.       3541.       3541.    
        3543.       3543.       3545.       3548.       3549.       3549.       3549.       3547.       3546.       3547.    
        3547.       3549.       3549.       3548.       3550.       3551.    
  53    3527.       3520.       3517.       3511.       3511.       3507.       3504.       3499.       3494.       3494.    
        3491.       3493.       3490.       3493.       3494.       3494.       3495.       3495.       3495.       3493.    
        3493.       3493.       3493.       3496.       3496.       3496.       3498.       3498.       3498.       3498.    
        3498.       3498.       3500.       3500.       3500.       3501.       3501.       3501.       3500.       3500.    
        3500.       3499.       3499.       3499.       3501.       3501.       3501.       3504.       3504.       3504.    
        3505.       3505.       3505.       3506.       3506.       3506.       3507.       3507.       3507.       3508.    
        3508.       3508.       3509.       3509.       3509.       3509.       3509.       3509.       3511.       3511.    
        3511.       3512.       3512.       3512.       3512.       3513.       3513.       3513.       3514.       3514.    
        3514.       3515.       3515.       3515.       3515.       3515.       3515.       3515.       3515.       3515.    
        3513.       3513.       3513.       3514.       3514.       3514.       3514.       3514.       3514.       3516.    
        3516.       3516.       3520.       3520.       3520.       3520.       3520.       3520.       3520.       3520.    
        3520.       3520.       3520.       3520.       3519.       3519.       3519.       3519.       3519.       3519.    
        3520.       3520.       3520.       3522.       3522.       3522.       3520.       3520.       3520.       3521.    
        3521.       3521.       3521.       3523.       3523.       3523.       3528.       3528.       3528.       3530.    
        3530.       3530.       3531.       3531.       3531.       3533.       3533.       3533.       3536.       3536.    
        3536.       3535.       3535.       3535.       3534.       3534.       3534.       3536.       3536.       3536.    
        3537.       3537.       3537.       3537.       3537.       3537.       3537.       3537.       3538.       3539.    
        3542.       3542.       3544.       3547.       3550.       3548.       3548.       3546.       3546.       3547.    
        3549.       3551.       3551.       3552.       3553.       3554.    
  54    3527.       3520.       3517.       3511.       3511.       3507.       3504.       3499.       3494.       3494.    
        3491.       3493.       3490.       3493.       3494.       3494.       3495.       3495.       3495.       3493.    
        3493.       3493.       3493.       3496.       3496.       3496.       3498.       3498.       3498.       3498.    
        3498.       3498.       3500.       3500.       3500.       3501.       3501.       3501.       3500.       3500.    
        3500.       3499.       3499.       3499.       3501.       3501.       3501.       3504.       3504.       3504.    
        3505.       3505.       3505.       3506.       3506.       3506.       3507.       3507.       3507.       3508.    
        3508.       3508.       3509.       3509.       3509.       3509.       3509.       3509.       3511.       3511.    
        3511.       3512.       3512.       3512.       3512.       3513.       3513.       3513.       3514.       3514.    
        3514.       3515.       3515.       3515.       3515.       3515.       3515.       3515.       3515.       3515.    
        3513.       3513.       3513.       3514.       3514.       3514.       3514.       3514.       3514.       3516.    
        3516.       3516.       3520.       3520.       3520.       3520.       3520.       3520.       3520.       3520.    
        3520.       3520.       3520.       3520.       3519.       3519.       3519.       3519.       3519.       3519.    
        3520.       3520.       3520.       3522.       3522.       3522.       3520.       3520.       3520.       3521.    
        3521.       3521.       3521.       3523.       3523.       3523.       3528.       3528.       3528.       3530.    
        3530.       3530.       3531.       3531.       3531.       3533.       3533.       3533.       3536.       3536.    
        3536.       3535.       3535.       3535.       3534.       3534.       3534.       3536.       3536.       3536.    
        3537.       3537.       3537.       3537.       3537.       3537.       3537.       3537.       3538.       3539.    
        3542.       3542.       3544.       3547.       3550.       3548.       3548.       3546.       3546.       3547.    
        3549.       3551.       3551.       3552.       3553.       3554.    
  55    3527.       3520.       3517.       3511.       3511.       3507.       3504.       3499.       3494.       3494.    
        3491.       3493.       3490.       3493.       3494.       3494.       3495.       3495.       3495.       3493.    
        3493.       3493.       3493.       3496.       3496.       3496.       3498.       3498.       3498.       3498.    
        3498.       3498.       3500.       3500.       3500.       3501.       3501.       3501.       3500.       3500.    
        3500.       3499.       3499.       3499.       3501.       3501.       3501.       3504.       3504.       3504.    
        3505.       3505.       3505.       3506.       3506.       3506.       3507.       3507.       3507.       3508.    
        3508.       3508.       3509.       3509.       3509.       3509.       3509.       3509.       3511.       3511.    
        3511.       3512.       3512.       3512.       3512.       3513.       3513.       3513.       3514.       3514.    
        3514.       3515.       3515.       3515.       3515.       3515.       3515.       3515.       3515.       3515.    
        3513.       3513.       3513.       3514.       3514.       3514.       3514.       3514.       3514.       3516.    
        3516.       3516.       3520.       3520.       3520.       3520.       3520.       3520.       3520.       3520.    
        3520.       3520.       3520.       3520.       3519.       3519.       3519.       3519.       3519.       3519.    
        3520.       3520.       3520.       3522.       3522.       3522.       3520.       3520.       3520.       3520.    
        3521.       3521.       3521.       3523.       3523.       3523.       3528.       3528.       3528.       3530.    
        3530.       3530.       3531.       3531.       3531.       3533.       3533.       3533.       3536.       3536.    
        3536.       3535.       3535.       3535.       3534.       3534.       3534.       3536.       3536.       3536.    
        3537.       3537.       3537.       3537.       3537.       3537.       3537.       3537.       3538.       3539.    
        3542.       3542.       3544.       3547.       3550.       3548.       3548.       3546.       3546.       3547.    
        3549.       3551.       3551.       3552.       3553.       3554.    
  56    3527.       3522.       3518.       3514.       3514.       3511.       3510.       3507.       3501.       3501.    
        3496.       3493.       3490.       3493.       3497.       3497.       3495.       3495.       3495.       3495.    
        3495.       3495.       3495.       3495.       3495.       3495.       3495.       3495.       3495.       3498.    
        3498.       3498.       3501.       3501.       3501.       3501.       3501.       3501.       3500.       3500.    
        3500.       3500.       3500.       3500.       3501.       3501.       3501.       3503.       3503.       3503.    
        3504.       3504.       3504.       3504.       3504.       3504.       3506.       3506.       3506.       3509.    
        3509.       3509.       3509.       3509.       3509.       3509.       3509.       3509.       3509.       3509.    
        3509.       3509.       3509.       3509.       3509.       3510.       3510.       3510.       3512.       3512.    
        3512.       3513.       3513.       3513.       3516.       3516.       3516.       3516.       3516.       3516.    
        3518.       3518.       3518.       3517.       3517.       3517.       3515.       3515.       3515.       3515.    
        3515.       3515.       3519.       3519.       3519.       3521.       3521.       3521.       3521.       3521.    
        3521.       3519.       3519.       3519.       3518.       3518.       3518.       3519.       3519.       3519.    
        3521.       3521.       3521.       3524.       3524.       3524.       3525.       3525.       3525.       3527.    
        3527.       3527.       3527.       3529.       3529.       3529.       3531.       3531.       3531.       3531.    
        3531.       3531.       3532.       3532.       3532.       3532.       3532.       3532.       3534.       3534.    
        3534.       3536.       3536.       3536.       3538.       3538.       3538.       3538.       3538.       3538.    
        3537.       3537.       3537.       3536.       3536.       3537.       3537.       3535.       3537.       3543.    
        3547.       3547.       3549.       3550.       3553.       3553.       3553.       3550.       3550.       3550.    
        3550.       3551.       3551.       3553.       3555.       3559.    
  57    3527.       3522.       3518.       3514.       3514.       3511.       3510.       3507.       3501.       3501.    
        3496.       3493.       3490.       3493.       3497.       3497.       3495.       3495.       3495.       3495.    
        3495.       3495.       3495.       3495.       3495.       3495.       3495.       3495.       3495.       3498.    
        3498.       3498.       3501.       3501.       3501.       3501.       3501.       3501.       3500.       3500.    
        3500.       3500.       3500.       3500.       3501.       3501.       3501.       3503.       3503.       3503.    
        3504.       3504.       3504.       3504.       3504.       3504.       3506.       3506.       3506.       3509.    
        3509.       3509.       3509.       3509.       3509.       3509.       3509.       3509.       3509.       3509.    
        3509.       3509.       3509.       3509.       3509.       3510.       3510.       3510.       3512.       3512.    
        3512.       3513.       3513.       3513.       3516.       3516.       3516.       3516.       3516.       3516.    
        3518.       3518.       3518.       3517.       3517.       3517.       3515.       3515.       3515.       3515.    
        3515.       3515.       3519.       3519.       3519.       3521.       3521.       3521.       3521.       3521.    
        3521.       3519.       3519.       3519.       3518.       3518.       3518.       3519.       3519.       3519.    
        3521.       3521.       3521.       3524.       3524.       3524.       3525.       3525.       3525.       3527.    
        3527.       3527.       3527.       3529.       3529.       3529.       3531.       3531.       3531.       3531.    
        3531.       3531.       3532.       3532.       3532.       3532.       3532.       3532.       3534.       3534.    
        3534.       3536.       3536.       3536.       3538.       3538.       3538.       3538.       3538.       3538.    
        3537.       3537.       3537.       3536.       3536.       3537.       3537.       3535.       3537.       3543.    
        3547.       3547.       3549.       3550.       3553.       3553.       3553.       3550.       3550.       3550.    
        3550.       3551.       3551.       3553.       3555.       3559.    
  58    3527.       3522.       3518.       3514.       3514.       3511.       3510.       3507.       3501.       3501.    
        3496.       3493.       3490.       3493.       3497.       3497.       3495.       3495.       3495.       3495.    
        3495.       3495.       3495.       3495.       3495.       3495.       3495.       3495.       3495.       3498.    
        3498.       3498.       3501.       3501.       3501.       3501.       3501.       3501.       3500.       3500.    
        3500.       3500.       3500.       3500.       3501.       3501.       3501.       3503.       3503.       3503.    
        3504.       3504.       3504.       3504.       3504.       3504.       3506.       3506.       3506.       3509.    
        3509.       3509.       3509.       3509.       3509.       3509.       3509.       3509.       3509.       3509.    
        3509.       3509.       3509.       3509.       3509.       3510.       3510.       3510.       3512.       3512.    
        3512.       3513.       3513.       3513.       3516.       3516.       3516.       3516.       3516.       3516.    
        3518.       3518.       3518.       3517.       3517.       3517.       3515.       3515.       3515.       3515.    
        3515.       3515.       3519.       3519.       3519.       3521.       3521.       3521.       3521.       3521.    
        3521.       3519.       3519.       3519.       3518.       3518.       3518.       3519.       3519.       3519.    
        3521.       3521.       3521.       3524.       3524.       3524.       3525.       3525.       3525.       3527.    
        3527.       3527.       3527.       3529.       3529.       3529.       3531.       3531.       3531.       3531.    
        3531.       3531.       3532.       3532.       3532.       3532.       3532.       3532.       3534.       3534.    
        3534.       3536.       3536.       3536.       3538.       3538.       3538.       3538.       3538.       3538.    
        3537.       3537.       3537.       3536.       3536.       3537.       3537.       3535.       3537.       3543.    
        3547.       3547.       3549.       3550.       3553.       3553.       3553.       3550.       3550.       3550.    
        3550.       3551.       3551.       3553.       3555.       3559.    
  59    3529.       3522.       3518.       3520.       3520.       3519.       3517.       3511.       3506.       3506.    
        3503.       3500.       3494.       3494.       3500.       3500.       3498.       3498.       3498.       3498.    
        3498.       3498.       3498.       3498.       3498.       3498.       3496.       3496.       3496.       3497.    
        3497.       3497.       3499.       3499.       3499.       3498.       3498.       3498.       3498.       3498.    
        3498.       3498.       3498.       3498.       3499.       3499.       3499.       3501.       3501.       3501.    
        3502.       3502.       3502.       3501.       3501.       3501.       3503.       3503.       3503.       3506.    
        3506.       3506.       3507.       3507.       3507.       3508.       3508.       3508.       3510.       3510.    
        3510.       3511.       3511.       3511.       3511.       3510.       3510.       3510.       3510.       3510.    
        3510.       3511.       3511.       3511.       3515.       3515.       3515.       3517.       3517.       3517.    
        3519.       3519.       3519.       3521.       3521.       3521.       3520.       3520.       3520.       3519.    
        3519.       3519.       3520.       3520.       3520.       3521.       3521.       3521.       3521.       3521.    
        3521.       3519.       3519.       3519.       3520.       3520.       3520.       3521.       3521.       3521.    
        3524.       3524.       3524.       3526.       3526.       3526.       3529.       3529.       3529.       3532.    
        3532.       3532.       3532.       3535.       3535.       3535.       3536.       3536.       3536.       3536.    
        3536.       3536.       3536.       3536.       3536.       3536.       3536.       3536.       3536.       3536.    
        3536.       3537.       3537.       3537.       3538.       3538.       3538.       3537.       3537.       3537.    
        3538.       3538.       3538.       3536.       3536.       3538.       3538.       3540.       3542.       3548.    
        3550.       3550.       3550.       3551.       3553.       3554.       3554.       3551.       3550.       3551.    
        3553.       3555.       3555.       3558.       3563.       3569.    
  60    3529.       3522.       3518.       3520.       3520.       3519.       3517.       3511.       3506.       3506.    
        3503.       3500.       3494.       3494.       3500.       3500.       3498.       3498.       3498.       3498.    
        3498.       3498.       3498.       3498.       3498.       3498.       3496.       3496.       3496.       3497.    
        3497.       3497.       3499.       3499.       3499.       3498.       3498.       3498.       3498.       3498.    
        3498.       3498.       3498.       3498.       3499.       3499.       3499.       3501.       3501.       3501.    
        3502.       3502.       3502.       3501.       3501.       3501.       3503.       3503.       3503.       3506.    
        3506.       3506.       3507.       3507.       3507.       3508.       3508.       3508.       3510.       3510.    
        3510.       3511.       3511.       3511.       3511.       3510.       3510.       3510.       3510.       3510.    
        3510.       3511.       3511.       3511.       3515.       3515.       3515.       3517.       3517.       3517.    
        3519.       3519.       3519.       3521.       3521.       3521.       3520.       3520.       3520.       3519.    
        3519.       3519.       3520.       3520.       3520.       3521.       3521.       3521.       3521.       3521.    
        3521.       3519.       3519.       3519.       3520.       3520.       3520.       3521.       3521.       3521.    
        3524.       3524.       3524.       3526.       3526.       3526.       3529.       3529.       3529.       3532.    
        3532.       3532.       3532.       3535.       3535.       3535.       3536.       3536.       3536.       3536.    
        3536.       3536.       3536.       3536.       3536.       3536.       3536.       3536.       3536.       3536.    
        3536.       3537.       3537.       3537.       3538.       3538.       3538.       3537.       3537.       3537.    
        3538.       3538.       3538.       3536.       3536.       3538.       3538.       3540.       3542.       3548.    
        3550.       3550.       3550.       3551.       3553.       3554.       3554.       3551.       3550.       3551.    
        3553.       3555.       3555.       3558.       3563.       3569.    
  61    3529.       3522.       3518.       3520.       3520.       3519.       3517.       3511.       3506.       3506.    
        3503.       3500.       3494.       3494.       3500.       3500.       3498.       3498.       3498.       3498.    
        3498.       3498.       3498.       3498.       3498.       3498.       3496.       3496.       3496.       3497.    
        3497.       3497.       3499.       3499.       3499.       3498.       3498.       3498.       3498.       3498.    
        3498.       3498.       3498.       3498.       3499.       3499.       3499.       3501.       3501.       3501.    
        3502.       3502.       3502.       3501.       3501.       3501.       3503.       3503.       3503.       3506.    
        3506.       3506.       3507.       3507.       3507.       3508.       3508.       3508.       3510.       3510.    
        3510.       3511.       3511.       3511.       3511.       3510.       3510.       3510.       3510.       3510.    
        3510.       3511.       3511.       3511.       3515.       3515.       3515.       3517.       3517.       3517.    
        3519.       3519.       3519.       3521.       3521.       3521.       3520.       3520.       3520.       3519.    
        3519.       3519.       3520.       3520.       3520.       3521.       3521.       3521.       3521.       3521.    
        3521.       3519.       3519.       3519.       3520.       3520.       3520.       3521.       3521.       3521.    
        3524.       3524.       3524.       3526.       3526.       3526.       3529.       3529.       3529.       3532.    
        3532.       3532.       3532.       3535.       3535.       3535.       3536.       3536.       3536.       3536.    
        3536.       3536.       3536.       3536.       3536.       3536.       3536.       3536.       3536.       3536.    
        3536.       3537.       3537.       3537.       3538.       3538.       3538.       3537.       3537.       3537.    
        3538.       3538.       3538.       3536.       3536.       3538.       3538.       3540.       3542.       3548.    
        3550.       3550.       3550.       3551.       3553.       3554.       3554.       3551.       3550.       3551.    
        3553.       3555.       3555.       3558.       3563.       3569.    
  62    3533.       3528.       3523.       3522.       3522.       3523.       3520.       3515.       3509.       3509.    
        3505.       3499.       3496.       3494.       3500.       3500.       3501.       3501.       3501.       3499.    
        3499.       3499.       3499.       3500.       3500.       3500.       3499.       3499.       3499.       3499.    
        3499.       3499.       3500.       3500.       3500.       3500.       3500.       3500.       3500.       3500.    
        3500.       3503.       3503.       3503.       3505.       3505.       3505.       3505.       3505.       3505.    
        3504.       3504.       3504.       3505.       3505.       3505.       3504.       3504.       3504.       3505.    
        3505.       3505.       3505.       3505.       3505.       3507.       3507.       3507.       3508.       3508.    
        3508.       3512.       3512.       3512.       3512.       3514.       3514.       3514.       3514.       3514.    
        3514.       3513.       3513.       3513.       3514.       3514.       3514.       3516.       3516.       3516.    
        3519.       3519.       3519.       3519.       3519.       3519.       3520.       3520.       3520.       3522.    
        3522.       3522.       3522.       3522.       3522.       3522.       3522.       3522.       3521.       3521.    
        3521.       3520.       3520.       3520.       3520.       3520.       3520.       3522.       3522.       3522.    
        3523.       3523.       3523.       3525.       3525.       3525.       3528.       3528.       3528.       3534.    
        3534.       3534.       3534.       3538.       3538.       3538.       3539.       3539.       3539.       3540.    
        3540.       3540.       3538.       3538.       3538.       3537.       3537.       3537.       3537.       3537.    
        3537.       3536.       3536.       3536.       3536.       3536.       3536.       3537.       3537.       3537.    
        3538.       3538.       3538.       3538.       3538.       3542.       3542.       3543.       3546.       3550.    
        3551.       3551.       3551.       3552.       3555.       3558.       3558.       3556.       3556.       3558.    
        3560.       3561.       3561.       3563.       3568.       3571.    
  63    3533.       3528.       3523.       3522.       3522.       3523.       3520.       3515.       3509.       3509.    
        3505.       3499.       3496.       3494.       3500.       3500.       3501.       3501.       3501.       3499.    
        3499.       3499.       3499.       3500.       3500.       3500.       3499.       3499.       3499.       3499.    
        3499.       3499.       3500.       3500.       3500.       3500.       3500.       3500.       3500.       3500.    
        3500.       3503.       3503.       3503.       3505.       3505.       3505.       3505.       3505.       3505.    
        3504.       3504.       3504.       3505.       3505.       3505.       3504.       3504.       3504.       3505.    
        3505.       3505.       3505.       3505.       3505.       3507.       3507.       3507.       3508.       3508.    
        3508.       3512.       3512.       3512.       3512.       3514.       3514.       3514.       3514.       3514.    
        3514.       3513.       3513.       3513.       3514.       3514.       3514.       3516.       3516.       3516.    
        3519.       3519.       3519.       3519.       3519.       3519.       3520.       3520.       3520.       3522.    
        3522.       3522.       3522.       3522.       3522.       3522.       3522.       3522.       3521.       3521.    
        3521.       3520.       3520.       3520.       3520.       3520.       3520.       3522.       3522.       3522.    
        3523.       3523.       3523.       3525.       3525.       3525.       3528.       3528.       3528.       3534.    
        3534.       3534.       3534.       3538.       3538.       3538.       3539.       3539.       3539.       3540.    
        3540.       3540.       3538.       3538.       3538.       3537.       3537.       3537.       3537.       3537.    
        3537.       3536.       3536.       3536.       3536.       3536.       3536.       3537.       3537.       3537.    
        3538.       3538.       3538.       3538.       3538.       3542.       3542.       3543.       3546.       3550.    
        3551.       3551.       3551.       3552.       3555.       3558.       3558.       3556.       3556.       3558.    
        3560.       3561.       3561.       3563.       3568.       3571.    
  64    3533.       3528.       3523.       3522.       3522.       3523.       3520.       3515.       3509.       3509.    
        3505.       3499.       3496.       3494.       3500.       3500.       3501.       3501.       3501.       3499.    
        3499.       3499.       3499.       3500.       3500.       3500.       3499.       3499.       3499.       3499.    
        3499.       3499.       3500.       3500.       3500.       3500.       3500.       3500.       3500.       3500.    
        3500.       3503.       3503.       3503.       3505.       3505.       3505.       3505.       3505.       3505.    
        3504.       3504.       3504.       3505.       3505.       3505.       3504.       3504.       3504.       3505.    
        3505.       3505.       3505.       3505.       3505.       3507.       3507.       3507.       3508.       3508.    
        3508.       3512.       3512.       3512.       3512.       3514.       3514.       3514.       3514.       3514.    
        3514.       3513.       3513.       3513.       3514.       3514.       3514.       3516.       3516.       3516.    
        3519.       3519.       3519.       3519.       3519.       3519.       3520.       3520.       3520.       3522.    
        3522.       3522.       3522.       3522.       3522.       3522.       3522.       3522.       3521.       3521.    
        3521.       3520.       3520.       3520.       3520.       3520.       3520.       3522.       3522.       3522.    
        3523.       3523.       3523.       3525.       3525.       3525.       3528.       3528.       3528.       3534.    
        3534.       3534.       3534.       3538.       3538.       3538.       3539.       3539.       3539.       3540.    
        3540.       3540.       3538.       3538.       3538.       3537.       3537.       3537.       3537.       3537.    
        3537.       3536.       3536.       3536.       3536.       3536.       3536.       3537.       3537.       3537.    
        3538.       3538.       3538.       3538.       3538.       3542.       3542.       3543.       3546.       3550.    
        3551.       3551.       3551.       3552.       3555.       3558.       3558.       3556.       3556.       3558.    
        3560.       3561.       3561.       3563.       3568.       3571.    
  65    3536.       3533.       3531.       3528.       3528.       3526.       3523.       3517.       3512.       3512.    
        3507.       3497.       3493.       3493.       3498.       3498.       3500.       3500.       3500.       3500.    
        3500.       3500.       3500.       3495.       3495.       3495.       3495.       3495.       3495.       3498.    
        3498.       3498.       3500.       3500.       3500.       3501.       3501.       3501.       3504.       3504.    
        3504.       3509.       3509.       3509.       3510.       3510.       3510.       3508.       3508.       3508.    
        3506.       3506.       3506.       3506.       3506.       3506.       3507.       3507.       3507.       3509.    
        3509.       3509.       3511.       3511.       3511.       3513.       3513.       3513.       3515.       3515.    
        3515.       3515.       3515.       3515.       3515.       3514.       3514.       3514.       3513.       3513.    
        3513.       3512.       3512.       3512.       3513.       3513.       3513.       3516.       3516.       3516.    
        3518.       3518.       3518.       3521.       3521.       3521.       3523.       3523.       3523.       3524.    
        3524.       3524.       3522.       3522.       3522.       3521.       3521.       3521.       3521.       3521.    
        3521.       3521.       3521.       3521.       3522.       3522.       3522.       3523.       3523.       3523.    
        3523.       3523.       3523.       3524.       3524.       3524.       3526.       3526.       3526.       3530.    
        3530.       3530.       3530.       3533.       3533.       3533.       3535.       3535.       3535.       3536.    
        3536.       3536.       3536.       3536.       3536.       3537.       3537.       3537.       3537.       3537.    
        3537.       3538.       3538.       3538.       3539.       3539.       3539.       3540.       3540.       3540.    
        3540.       3540.       3540.       3540.       3540.       3542.       3542.       3546.       3550.       3555.    
        3557.       3557.       3557.       3555.       3560.       3566.       3566.       3567.       3566.       3566.    
        3566.       3565.       3565.       3566.       3569.       3570.    
  66    3536.       3533.       3531.       3528.       3528.       3526.       3523.       3517.       3512.       3512.    
        3507.       3497.       3493.       3493.       3498.       3498.       3500.       3500.       3500.       3500.    
        3500.       3500.       3500.       3495.       3495.       3495.       3495.       3495.       3495.       3498.    
        3498.       3498.       3500.       3500.       3500.       3501.       3501.       3501.       3504.       3504.    
        3504.       3509.       3509.       3509.       3510.       3510.       3510.       3508.       3508.       3508.    
        3506.       3506.       3506.       3506.       3506.       3506.       3507.       3507.       3507.       3509.    
        3509.       3509.       3511.       3511.       3511.       3513.       3513.       3513.       3515.       3515.    
        3515.       3515.       3515.       3515.       3515.       3514.       3514.       3514.       3513.       3513.    
        3513.       3512.       3512.       3512.       3513.       3513.       3513.       3516.       3516.       3516.    
        3518.       3518.       3518.       3521.       3521.       3521.       3523.       3523.       3523.       3524.    
        3524.       3524.       3522.       3522.       3522.       3521.       3521.       3521.       3521.       3521.    
        3521.       3521.       3521.       3521.       3522.       3522.       3522.       3523.       3523.       3523.    
        3523.       3523.       3523.       3524.       3524.       3524.       3526.       3526.       3526.       3530.    
        3530.       3530.       3530.       3533.       3533.       3533.       3535.       3535.       3535.       3536.    
        3536.       3536.       3536.       3536.       3536.       3537.       3537.       3537.       3537.       3537.    
        3537.       3538.       3538.       3538.       3539.       3539.       3539.       3540.       3540.       3540.    
        3540.       3540.       3540.       3540.       3540.       3542.       3542.       3546.       3550.       3555.    
        3557.       3557.       3557.       3555.       3560.       3566.       3566.       3567.       3566.       3566.    
        3566.       3565.       3565.       3566.       3569.       3570.    
  67    3536.       3533.       3531.       3528.       3528.       3526.       3523.       3517.       3512.       3512.    
        3507.       3497.       3493.       3493.       3498.       3498.       3500.       3500.       3500.       3500.    
        3500.       3500.       3500.       3495.       3495.       3495.       3495.       3495.       3495.       3498.    
        3498.       3498.       3500.       3500.       3500.       3501.       3501.       3501.       3504.       3504.    
        3504.       3509.       3509.       3509.       3510.       3510.       3510.       3508.       3508.       3508.    
        3506.       3506.       3506.       3506.       3506.       3506.       3507.       3507.       3507.       3509.    
        3509.       3509.       3511.       3511.       3511.       3513.       3513.       3513.       3515.       3515.    
        3515.       3515.       3515.       3515.       3515.       3514.       3514.       3514.       3513.       3513.    
        3513.       3512.       3512.       3512.       3513.       3513.       3513.       3516.       3516.       3516.    
        3518.       3518.       3518.       3521.       3521.       3521.       3523.       3523.       3523.       3524.    
        3524.       3524.       3522.       3522.       3522.       3521.       3521.       3521.       3521.       3521.    
        3521.       3521.       3521.       3521.       3522.       3522.       3522.       3523.       3523.       3523.    
        3523.       3523.       3523.       3524.       3524.       3524.       3526.       3526.       3526.       3530.    
        3530.       3530.       3530.       3533.       3533.       3533.       3535.       3535.       3535.       3536.    
        3536.       3536.       3536.       3536.       3536.       3537.       3537.       3537.       3537.       3537.    
        3537.       3538.       3538.       3538.       3539.       3539.       3539.       3540.       3540.       3540.    
        3540.       3540.       3540.       3540.       3540.       3542.       3542.       3546.       3550.       3555.    
        3557.       3557.       3557.       3555.       3560.       3566.       3566.       3567.       3566.       3566.    
        3566.       3565.       3565.       3566.       3569.       3570.    
  68    3536.       3537.       3534.       3530.       3530.       3528.       3526.       3520.       3514.       3514.    
        3507.       3498.       3494.       3495.       3497.       3497.       3500.       3500.       3500.       3498.    
        3498.       3498.       3498.       3495.       3495.       3495.       3496.       3496.       3496.       3501.    
        3501.       3501.       3503.       3503.       3503.       3504.       3504.       3504.       3507.       3507.    
        3507.       3509.       3509.       3509.       3511.       3511.       3511.       3510.       3510.       3510.    
        3508.       3508.       3508.       3505.       3505.       3505.       3504.       3504.       3504.       3503.    
        3503.       3503.       3506.       3506.       3506.       3510.       3510.       3510.       3514.       3514.    
        3514.       3517.       3517.       3517.       3517.       3518.       3518.       3518.       3516.       3516.    
        3516.       3516.       3516.       3516.       3517.       3517.       3517.       3517.       3517.       3517.    
        3519.       3519.       3519.       3522.       3522.       3522.       3524.       3524.       3524.       3523.    
        3523.       3523.       3523.       3523.       3523.       3524.       3524.       3524.       3524.       3524.    
        3524.       3524.       3524.       3524.       3525.       3525.       3525.       3526.       3526.       3526.    
        3528.       3528.       3528.       3528.       3528.       3528.       3528.       3528.       3528.       3528.    
        3528.       3528.       3528.       3529.       3529.       3529.       3532.       3532.       3532.       3533.    
        3533.       3533.       3533.       3533.       3533.       3534.       3534.       3534.       3537.       3537.    
        3537.       3537.       3537.       3537.       3538.       3538.       3538.       3540.       3540.       3540.    
        3542.       3542.       3542.       3543.       3543.       3544.       3544.       3546.       3558.       3560.    
        3561.       3561.       3561.       3561.       3561.       3564.       3564.       3569.       3569.       3566.    
        3565.       3564.       3564.       3564.       3568.       3572.    
  69    3536.       3537.       3534.       3530.       3530.       3528.       3526.       3520.       3514.       3514.    
        3507.       3498.       3494.       3495.       3497.       3497.       3500.       3500.       3500.       3498.    
        3498.       3498.       3498.       3495.       3495.       3495.       3496.       3496.       3496.       3501.    
        3501.       3501.       3503.       3503.       3503.       3504.       3504.       3504.       3507.       3507.    
        3507.       3509.       3509.       3509.       3511.       3511.       3511.       3510.       3510.       3510.    
        3508.       3508.       3508.       3505.       3505.       3505.       3504.       3504.       3504.       3503.    
        3503.       3503.       3506.       3506.       3506.       3510.       3510.       3510.       3514.       3514.    
        3514.       3517.       3517.       3517.       3517.       3518.       3518.       3518.       3516.       3516.    
        3516.       3516.       3516.       3516.       3517.       3517.       3517.       3517.       3517.       3517.    
        3519.       3519.       3519.       3522.       3522.       3522.       3524.       3524.       3524.       3523.    
        3523.       3523.       3523.       3523.       3523.       3524.       3524.       3524.       3524.       3524.    
        3524.       3524.       3524.       3524.       3525.       3525.       3525.       3526.       3526.       3526.    
        3528.       3528.       3528.       3528.       3528.       3528.       3528.       3528.       3528.       3528.    
        3528.       3528.       3528.       3529.       3529.       3529.       3532.       3532.       3532.       3533.    
        3533.       3533.       3533.       3533.       3533.       3534.       3534.       3534.       3537.       3537.    
        3537.       3537.       3537.       3537.       3538.       3538.       3538.       3540.       3540.       3540.    
        3542.       3542.       3542.       3543.       3543.       3544.       3544.       3546.       3558.       3560.    
        3561.       3561.       3561.       3561.       3561.       3564.       3564.       3569.       3569.       3566.    
        3565.       3564.       3564.       3564.       3568.       3572.    
  70    3536.       3537.       3534.       3530.       3530.       3528.       3526.       3520.       3514.       3514.    
        3507.       3498.       3494.       3495.       3497.       3497.       3500.       3500.       3500.       3498.    
        3498.       3498.       3498.       3495.       3495.       3495.       3496.       3496.       3496.       3501.    
        3501.       3501.       3503.       3503.       3503.       3504.       3504.       3504.       3507.       3507.    
        3507.       3509.       3509.       3509.       3511.       3511.       3511.       3510.       3510.       3510.    
        3508.       3508.       3508.       3505.       3505.       3505.       3504.       3504.       3504.       3503.    
        3503.       3503.       3506.       3506.       3506.       3510.       3510.       3510.       3514.       3514.    
        3514.       3517.       3517.       3517.       3517.       3518.       3518.       3518.       3516.       3516.    
        3516.       3516.       3516.       3516.       3517.       3517.       3517.       3517.       3517.       3517.    
        3519.       3519.       3519.       3522.       3522.       3522.       3524.       3524.       3524.       3523.    
        3523.       3523.       3523.       3523.       3523.       3524.       3524.       3524.       3524.       3524.    
        3524.       3524.       3524.       3524.       3525.       3525.       3525.       3526.       3526.       3526.    
        3528.       3528.       3528.       3528.       3528.       3528.       3528.       3528.       3528.       3528.    
        3528.       3528.       3528.       3529.       3529.       3529.       3532.       3532.       3532.       3533.    
        3533.       3533.       3533.       3533.       3533.       3534.       3534.       3534.       3537.       3537.    
        3537.       3537.       3537.       3537.       3538.       3538.       3538.       3540.       3540.       3540.    
        3542.       3542.       3542.       3543.       3543.       3544.       3544.       3546.       3558.       3560.    
        3561.       3561.       3561.       3561.       3561.       3564.       3564.       3569.       3569.       3566.    
        3565.       3564.       3564.       3564.       3568.       3572.    
  71    3537.       3537.       3536.       3531.       3531.       3531.       3527.       3524.       3518.       3518.    
        3512.       3501.       3498.       3500.       3500.       3500.       3502.       3502.       3502.       3499.    
        3499.       3499.       3499.       3496.       3496.       3496.       3498.       3498.       3498.       3504.    
        3504.       3504.       3503.       3503.       3503.       3503.       3503.       3503.       3507.       3507.    
        3507.       3506.       3506.       3506.       3506.       3506.       3506.       3508.       3508.       3508.    
        3507.       3507.       3507.       3504.       3504.       3504.       3505.       3505.       3505.       3508.    
        3508.       3508.       3512.       3512.       3512.       3518.       3518.       3518.       3521.       3521.    
        3521.       3522.       3522.       3522.       3522.       3523.       3523.       3523.       3525.       3525.    
        3525.       3526.       3526.       3526.       3527.       3527.       3527.       3527.       3527.       3527.    
        3527.       3527.       3527.       3526.       3526.       3526.       3527.       3527.       3527.       3526.    
        3526.       3526.       3526.       3526.       3526.       3528.       3528.       3528.       3530.       3530.    
        3530.       3532.       3532.       3532.       3532.       3532.       3532.       3532.       3532.       3532.    
        3533.       3533.       3533.       3534.       3534.       3534.       3535.       3535.       3535.       3534.    
        3534.       3534.       3534.       3534.       3534.       3534.       3534.       3534.       3534.       3537.    
        3537.       3537.       3541.       3541.       3541.       3542.       3542.       3542.       3543.       3543.    
        3543.       3543.       3543.       3543.       3544.       3544.       3544.       3545.       3545.       3545.    
        3547.       3547.       3547.       3551.       3551.       3555.       3555.       3557.       3558.       3563.    
        3564.       3564.       3563.       3563.       3563.       3565.       3565.       3570.       3571.       3573.    
        3570.       3569.       3569.       3572.       3579.       3582.    
  72    3537.       3537.       3536.       3531.       3531.       3531.       3527.       3524.       3518.       3518.    
        3512.       3501.       3498.       3500.       3500.       3500.       3502.       3502.       3502.       3499.    
        3499.       3499.       3499.       3496.       3496.       3496.       3498.       3498.       3498.       3504.    
        3504.       3504.       3503.       3503.       3503.       3503.       3503.       3503.       3507.       3507.    
        3507.       3506.       3506.       3506.       3506.       3506.       3506.       3508.       3508.       3508.    
        3507.       3507.       3507.       3504.       3504.       3504.       3505.       3505.       3505.       3508.    
        3508.       3508.       3512.       3512.       3512.       3518.       3518.       3518.       3521.       3521.    
        3521.       3522.       3522.       3522.       3522.       3523.       3523.       3523.       3525.       3525.    
        3525.       3526.       3526.       3526.       3527.       3527.       3527.       3527.       3527.       3527.    
        3527.       3527.       3527.       3526.       3526.       3526.       3527.       3527.       3527.       3526.    
        3526.       3526.       3526.       3526.       3526.       3528.       3528.       3528.       3530.       3530.    
        3530.       3532.       3532.       3532.       3532.       3532.       3532.       3532.       3532.       3532.    
        3533.       3533.       3533.       3534.       3534.       3534.       3535.       3535.       3535.       3534.    
        3534.       3534.       3534.       3534.       3534.       3534.       3534.       3534.       3534.       3537.    
        3537.       3537.       3541.       3541.       3541.       3542.       3542.       3542.       3543.       3543.    
        3543.       3543.       3543.       3543.       3544.       3544.       3544.       3545.       3545.       3545.    
        3547.       3547.       3547.       3551.       3551.       3555.       3555.       3557.       3558.       3563.    
        3564.       3564.       3563.       3563.       3563.       3565.       3565.       3570.       3571.       3573.    
        3570.       3569.       3569.       3572.       3579.       3582.    
  73    3537.       3537.       3536.       3531.       3531.       3531.       3527.       3524.       3518.       3518.    
        3512.       3501.       3498.       3500.       3500.       3500.       3502.       3502.       3502.       3499.    
        3499.       3499.       3499.       3496.       3496.       3496.       3498.       3498.       3498.       3504.    
        3504.       3504.       3503.       3503.       3503.       3503.       3503.       3503.       3507.       3507.    
        3507.       3506.       3506.       3506.       3506.       3506.       3506.       3508.       3508.       3508.    
        3507.       3507.       3507.       3504.       3504.       3504.       3505.       3505.       3505.       3508.    
        3508.       3508.       3512.       3512.       3512.       3518.       3518.       3518.       3521.       3521.    
        3521.       3522.       3522.       3522.       3522.       3523.       3523.       3523.       3525.       3525.    
        3525.       3526.       3526.       3526.       3527.       3527.       3527.       3527.       3527.       3527.    
        3527.       3527.       3527.       3526.       3526.       3526.       3527.       3527.       3527.       3526.    
        3526.       3526.       3526.       3526.       3526.       3528.       3528.       3528.       3530.       3530.    
        3530.       3532.       3532.       3532.       3532.       3532.       3532.       3532.       3532.       3532.    
        3533.       3533.       3533.       3534.       3534.       3534.       3535.       3535.       3535.       3534.    
        3534.       3534.       3534.       3534.       3534.       3534.       3534.       3534.       3534.       3537.    
        3537.       3537.       3541.       3541.       3541.       3542.       3542.       3542.       3543.       3543.    
        3543.       3543.       3543.       3543.       3544.       3544.       3544.       3545.       3545.       3545.    
        3547.       3547.       3547.       3551.       3551.       3555.       3555.       3557.       3558.       3563.    
        3564.       3564.       3563.       3563.       3563.       3565.       3565.       3570.       3571.       3573.    
        3570.       3569.       3569.       3572.       3579.       3582.    
  74    3543.       3539.       3538.       3535.       3535.       3533.       3531.       3527.       3522.       3522.    
        3518.       3509.       3503.       3503.       3503.       3503.       3499.       3499.       3499.       3501.    
        3501.       3501.       3501.       3500.       3500.       3500.       3499.       3499.       3499.       3504.    
        3504.       3504.       3506.       3506.       3506.       3507.       3507.       3507.       3506.       3506.    
        3506.       3507.       3507.       3507.       3507.       3507.       3507.       3507.       3507.       3507.    
        3508.       3508.       3508.       3507.       3507.       3507.       3509.       3509.       3509.       3513.    
        3513.       3513.       3519.       3519.       3519.       3525.       3525.       3525.       3528.       3528.    
        3528.       3532.       3532.       3532.       3532.       3534.       3534.       3534.       3535.       3535.    
        3535.       3537.       3537.       3537.       3537.       3537.       3537.       3537.       3537.       3537.    
        3537.       3537.       3537.       3538.       3538.       3538.       3538.       3538.       3538.       3540.    
        3540.       3540.       3539.       3539.       3539.       3541.       3541.       3541.       3540.       3540.    
        3540.       3541.       3541.       3541.       3541.       3541.       3541.       3542.       3542.       3542.    
        3542.       3542.       3542.       3545.       3545.       3545.       3547.       3547.       3547.       3546.    
        3546.       3546.       3546.       3545.       3545.       3545.       3545.       3545.       3545.       3547.    
        3547.       3547.       3551.       3551.       3551.       3553.       3553.       3553.       3553.       3553.    
        3553.       3552.       3552.       3552.       3553.       3553.       3553.       3554.       3554.       3554.    
        3554.       3554.       3554.       3555.       3555.       3559.       3559.       3563.       3562.       3563.    
        3568.       3568.       3569.       3570.       3570.       3570.       3570.       3570.       3571.       3572.    
        3573.       3573.       3573.       3576.       3580.       3582.    
  75    3543.       3539.       3538.       3535.       3535.       3533.       3531.       3527.       3522.       3522.    
        3518.       3509.       3503.       3503.       3503.       3503.       3499.       3499.       3499.       3501.    
        3501.       3501.       3501.       3500.       3500.       3500.       3499.       3499.       3499.       3504.    
        3504.       3504.       3506.       3506.       3506.       3507.       3507.       3507.       3506.       3506.    
        3506.       3507.       3507.       3507.       3507.       3507.       3507.       3507.       3507.       3507.    
        3508.       3508.       3508.       3507.       3507.       3507.       3509.       3509.       3509.       3513.    
        3513.       3513.       3519.       3519.       3519.       3525.       3525.       3525.       3528.       3528.    
        3528.       3532.       3532.       3532.       3532.       3534.       3534.       3534.       3535.       3535.    
        3535.       3537.       3537.       3537.       3537.       3537.       3537.       3537.       3537.       3537.    
        3537.       3537.       3537.       3538.       3538.       3538.       3538.       3538.       3538.       3540.    
        3540.       3540.       3539.       3539.       3539.       3541.       3541.       3541.       3540.       3540.    
        3540.       3541.       3541.       3541.       3541.       3541.       3541.       3542.       3542.       3542.    
        3542.       3542.       3542.       3545.       3545.       3545.       3547.       3547.       3547.       3546.    
        3546.       3546.       3546.       3545.       3545.       3545.       3545.       3545.       3545.       3547.    
        3547.       3547.       3551.       3551.       3551.       3553.       3553.       3553.       3553.       3553.    
        3553.       3552.       3552.       3552.       3553.       3553.       3553.       3554.       3554.       3554.    
        3554.       3554.       3554.       3555.       3555.       3559.       3559.       3563.       3562.       3563.    
        3568.       3568.       3569.       3570.       3570.       3570.       3570.       3570.       3571.       3572.    
        3573.       3573.       3573.       3576.       3580.       3582.    
  76    3547.       3545.       3541.       3538.       3538.       3535.       3533.       3530.       3525.       3525.    
        3520.       3514.       3508.       3505.       3503.       3503.       3495.       3495.       3495.       3500.    
        3500.       3500.       3500.       3500.       3500.       3500.       3501.       3501.       3501.       3502.    
        3502.       3502.       3504.       3504.       3504.       3504.       3504.       3504.       3506.       3506.    
        3506.       3509.       3509.       3509.       3509.       3509.       3509.       3509.       3509.       3509.    
        3509.       3509.       3509.       3511.       3511.       3511.       3514.       3514.       3514.       3520.    
        3520.       3520.       3527.       3527.       3527.       3532.       3532.       3532.       3533.       3533.    
        3533.       3535.       3535.       3535.       3535.       3538.       3538.       3538.       3539.       3539.    
        3539.       3538.       3538.       3538.       3539.       3539.       3539.       3542.       3542.       3542.    
        3543.       3543.       3543.       3543.       3543.       3543.       3543.       3543.       3543.       3545.    
        3545.       3545.       3547.       3547.       3547.       3547.       3547.       3547.       3546.       3546.    
        3546.       3545.       3545.       3545.       3547.       3547.       3547.       3547.       3547.       3547.    
        3548.       3548.       3548.       3550.       3550.       3550.       3552.       3552.       3552.       3551.    
        3551.       3551.       3551.       3551.       3551.       3551.       3552.       3552.       3552.       3552.    
        3552.       3552.       3554.       3554.       3554.       3556.       3556.       3556.       3559.       3559.    
        3559.       3559.       3559.       3559.       3560.       3560.       3560.       3561.       3561.       3561.    
        3560.       3560.       3560.       3559.       3559.       3560.       3560.       3564.       3565.       3567.    
        3568.       3568.       3575.       3577.       3576.       3575.       3575.       3574.       3573.       3574.    
        3575.       3576.       3576.       3579.       3583.       3583.    
  77    3547.       3545.       3541.       3538.       3538.       3535.       3533.       3530.       3525.       3525.    
        3520.       3514.       3508.       3505.       3503.       3503.       3495.       3495.       3495.       3500.    
        3500.       3500.       3500.       3500.       3500.       3500.       3501.       3501.       3501.       3502.    
        3502.       3502.       3504.       3504.       3504.       3504.       3504.       3504.       3506.       3506.    
        3506.       3509.       3509.       3509.       3509.       3509.       3509.       3509.       3509.       3509.    
        3509.       3509.       3509.       3511.       3511.       3511.       3514.       3514.       3514.       3520.    
        3520.       3520.       3527.       3527.       3527.       3532.       3532.       3532.       3533.       3533.    
        3533.       3535.       3535.       3535.       3535.       3538.       3538.       3538.       3539.       3539.    
        3539.       3538.       3538.       3538.       3539.       3539.       3539.       3542.       3542.       3542.    
        3543.       3543.       3543.       3543.       3543.       3543.       3543.       3543.       3543.       3545.    
        3545.       3545.       3547.       3547.       3547.       3547.       3547.       3547.       3546.       3546.    
        3546.       3545.       3545.       3545.       3547.       3547.       3547.       3547.       3547.       3547.    
        3548.       3548.       3548.       3550.       3550.       3550.       3552.       3552.       3552.       3551.    
        3551.       3551.       3551.       3551.       3551.       3551.       3552.       3552.       3552.       3552.    
        3552.       3552.       3554.       3554.       3554.       3556.       3556.       3556.       3559.       3559.    
        3559.       3559.       3559.       3559.       3560.       3560.       3560.       3561.       3561.       3561.    
        3560.       3560.       3560.       3559.       3559.       3560.       3560.       3564.       3565.       3567.    
        3568.       3568.       3575.       3577.       3576.       3575.       3575.       3574.       3573.       3574.    
        3575.       3576.       3576.       3579.       3583.       3583.    
  78    3546.       3543.       3539.       3537.       3537.       3536.       3531.       3528.       3525.       3525.    
        3521.       3517.       3509.       3507.       3508.       3508.       3504.       3504.       3504.       3501.    
        3501.       3501.       3501.       3499.       3499.       3499.       3500.       3500.       3500.       3505.    
        3505.       3505.       3504.       3504.       3504.       3503.       3503.       3503.       3506.       3506.    
        3506.       3511.       3511.       3511.       3512.       3512.       3512.       3512.       3512.       3512.    
        3510.       3510.       3510.       3514.       3514.       3514.       3518.       3518.       3518.       3524.    
        3524.       3524.       3529.       3529.       3529.       3535.       3535.       3535.       3536.       3536.    
        3536.       3536.       3536.       3536.       3536.       3537.       3537.       3537.       3540.       3540.    
        3540.       3540.       3540.       3540.       3542.       3542.       3542.       3543.       3543.       3543.    
        3540.       3540.       3540.       3540.       3540.       3540.       3543.       3543.       3543.       3545.    
        3545.       3545.       3549.       3549.       3549.       3551.       3551.       3551.       3549.       3549.    
        3549.       3547.       3547.       3547.       3546.       3546.       3546.       3548.       3548.       3548.    
        3550.       3550.       3550.       3552.       3552.       3552.       3552.       3552.       3552.       3552.    
        3552.       3552.       3552.       3553.       3553.       3553.       3554.       3554.       3554.       3555.    
        3555.       3555.       3557.       3557.       3557.       3561.       3561.       3561.       3562.       3562.    
        3562.       3562.       3562.       3562.       3563.       3563.       3563.       3563.       3563.       3563.    
        3563.       3563.       3563.       3564.       3564.       3565.       3565.       3569.       3574.       3574.    
        3575.       3575.       3575.       3580.       3578.       3579.       3579.       3577.       3577.       3580.    
        3583.       3586.       3586.       3588.       3588.       3589.    
  79    3546.       3543.       3540.       3540.       3540.       3540.       3537.       3530.       3526.       3526.    
        3523.       3519.       3512.       3508.       3504.       3504.       3498.       3498.       3498.       3497.    
        3497.       3497.       3497.       3500.       3500.       3500.       3500.       3500.       3500.       3498.    
        3498.       3498.       3500.       3500.       3500.       3501.       3501.       3501.       3504.       3504.    
        3504.       3510.       3510.       3510.       3513.       3513.       3513.       3511.       3511.       3511.    
        3510.       3510.       3510.       3516.       3516.       3516.       3523.       3523.       3523.       3526.    
        3526.       3526.       3530.       3530.       3530.       3536.       3536.       3536.       3539.       3539.    
        3539.       3538.       3538.       3538.       3538.       3537.       3537.       3537.       3539.       3539.    
        3539.       3541.       3541.       3541.       3543.       3543.       3543.       3544.       3544.       3544.    
        3542.       3542.       3542.       3544.       3544.       3544.       3548.       3548.       3548.       3552.    
        3552.       3552.       3554.       3554.       3554.       3557.       3557.       3557.       3558.       3558.    
        3558.       3557.       3557.       3557.       3555.       3555.       3555.       3557.       3557.       3557.    
        3556.       3556.       3556.       3555.       3555.       3555.       3555.       3555.       3555.       3556.    
        3556.       3556.       3556.       3559.       3559.       3559.       3559.       3559.       3559.       3560.    
        3560.       3560.       3562.       3562.       3562.       3566.       3566.       3566.       3566.       3566.    
        3566.       3565.       3565.       3565.       3564.       3564.       3564.       3562.       3562.       3562.    
        3562.       3562.       3562.       3564.       3564.       3569.       3569.       3576.       3579.       3578.    
        3578.       3578.       3580.       3582.       3582.       3583.       3583.       3583.       3580.       3583.    
        3584.       3586.       3586.       3588.       3588.       3587.    
  80    3550.       3548.       3544.       3543.       3543.       3541.       3539.       3531.       3527.       3527.    
        3524.       3520.       3515.       3507.       3499.       3499.       3494.       3494.       3494.       3493.    
        3493.       3493.       3493.       3497.       3497.       3497.       3499.       3499.       3499.       3500.    
        3500.       3500.       3503.       3503.       3503.       3504.       3504.       3504.       3504.       3504.    
        3504.       3506.       3506.       3506.       3509.       3509.       3509.       3508.       3508.       3508.    
        3509.       3509.       3509.       3516.       3516.       3516.       3525.       3525.       3525.       3527.    
        3527.       3527.       3530.       3530.       3530.       3533.       3533.       3533.       3536.       3536.    
        3536.       3536.       3536.       3536.       3536.       3538.       3538.       3538.       3540.       3540.    
        3540.       3540.       3540.       3540.       3542.       3542.       3542.       3544.       3544.       3544.    
        3548.       3548.       3548.       3547.       3547.       3547.       3553.       3553.       3553.       3556.    
        3556.       3556.       3558.       3558.       3558.       3560.       3560.       3560.       3564.       3564.    
        3564.       3565.       3565.       3565.       3563.       3563.       3563.       3562.       3562.       3562.    
        3560.       3560.       3560.       3557.       3557.       3557.       3556.       3556.       3556.       3559.    
        3559.       3559.       3559.       3564.       3564.       3564.       3567.       3567.       3567.       3568.    
        3568.       3568.       3570.       3570.       3570.       3571.       3571.       3571.       3571.       3571.    
        3571.       3570.       3570.       3570.       3570.       3570.       3570.       3568.       3568.       3568.    
        3570.       3570.       3570.       3572.       3572.       3575.       3575.       3579.       3581.       3580.    
        3582.       3582.       3583.       3582.       3581.       3583.       3583.       3582.       3582.       3582.    
        3584.       3587.       3587.       3589.       3589.       3588.    
  81    3554.       3553.       3548.       3543.       3543.       3540.       3537.       3532.       3528.       3528.    
        3527.       3523.       3517.       3509.       3499.       3499.       3495.       3495.       3495.       3496.    
        3496.       3496.       3496.       3495.       3495.       3495.       3500.       3500.       3500.       3503.    
        3503.       3503.       3503.       3503.       3503.       3504.       3504.       3504.       3505.       3505.    
        3505.       3507.       3507.       3507.       3508.       3508.       3508.       3508.       3508.       3508.    
        3511.       3511.       3511.       3517.       3517.       3517.       3524.       3524.       3524.       3524.    
        3524.       3524.       3526.       3526.       3526.       3530.       3530.       3530.       3533.       3533.    
        3533.       3536.       3536.       3536.       3536.       3539.       3539.       3539.       3542.       3542.    
        3542.       3542.       3542.       3542.       3542.       3542.       3542.       3546.       3546.       3546.    
        3551.       3551.       3551.       3554.       3554.       3554.       3556.       3556.       3556.       3557.    
        3557.       3557.       3560.       3560.       3560.       3565.       3565.       3565.       3569.       3569.    
        3569.       3572.       3572.       3572.       3571.       3571.       3571.       3566.       3566.       3566.    
        3566.       3566.       3566.       3566.       3566.       3566.       3569.       3569.       3569.       3571.    
        3571.       3571.       3571.       3575.       3575.       3575.       3576.       3576.       3576.       3574.    
        3574.       3574.       3573.       3573.       3573.       3574.       3574.       3574.       3578.       3578.    
        3578.       3581.       3581.       3581.       3582.       3582.       3582.       3581.       3581.       3581.    
        3579.       3579.       3579.       3578.       3578.       3577.       3577.       3579.       3580.       3580.    
        3580.       3580.       3580.       3580.       3581.       3587.       3587.       3590.       3592.       3590.    
        3589.       3592.       3592.       3594.       3595.       3596.    
  82    3554.       3553.       3548.       3543.       3543.       3540.       3537.       3532.       3528.       3528.    
        3527.       3523.       3517.       3509.       3499.       3499.       3495.       3495.       3495.       3496.    
        3496.       3496.       3496.       3495.       3495.       3495.       3500.       3500.       3500.       3503.    
        3503.       3503.       3503.       3503.       3503.       3504.       3504.       3504.       3505.       3505.    
        3505.       3507.       3507.       3507.       3508.       3508.       3508.       3508.       3508.       3508.    
        3511.       3511.       3511.       3517.       3517.       3517.       3524.       3524.       3524.       3524.    
        3524.       3524.       3526.       3526.       3526.       3530.       3530.       3530.       3533.       3533.    
        3533.       3536.       3536.       3536.       3536.       3539.       3539.       3539.       3542.       3542.    
        3542.       3542.       3542.       3542.       3542.       3542.       3542.       3546.       3546.       3546.    
        3551.       3551.       3551.       3554.       3554.       3554.       3556.       3556.       3559.       3557.    
        3557.       3557.       3560.       3560.       3560.       3565.       3565.       3565.       3569.       3569.    
        3569.       3572.       3572.       3572.       3571.       3571.       3571.       3566.       3566.       3566.    
        3566.       3566.       3566.       3566.       3566.       3566.       3569.       3569.       3584.       3571.    
        3571.       3571.       3571.       3575.       3575.       3575.       3576.       3576.       3576.       3574.    
        3574.       3574.       3573.       3573.       3573.       3574.       3574.       3574.       3578.       3578.    
        3578.       3581.       3581.       3581.       3582.       3582.       3582.       3580.       3581.       3581.    
        3579.       3579.       3579.       3578.       3578.       3577.       3577.       3579.       3580.       3580.    
        3580.       3580.       3580.       3580.       3581.       3587.       3587.       3590.       3592.       3590.    
        3589.       3592.       3592.       3594.       3595.       3596.    
  83    3553.       3551.       3547.       3543.       3543.       3539.       3536.       3532.       3529.       3529.    
        3528.       3525.       3520.       3509.       3502.       3502.       3495.       3495.       3495.       3492.    
        3492.       3492.       3492.       3496.       3496.       3496.       3501.       3501.       3501.       3502.    
        3502.       3502.       3505.       3505.       3505.       3506.       3506.       3506.       3507.       3507.    
        3507.       3509.       3509.       3509.       3510.       3510.       3510.       3511.       3511.       3511.    
        3512.       3512.       3512.       3517.       3517.       3517.       3524.       3524.       3524.       3526.    
        3526.       3526.       3524.       3524.       3524.       3525.       3525.       3525.       3529.       3529.    
        3529.       3533.       3533.       3533.       3533.       3537.       3537.       3537.       3540.       3540.    
        3540.       3542.       3542.       3542.       3545.       3545.       3545.       3550.       3550.       3550.    
        3555.       3555.       3555.       3558.       3558.       3558.       3559.       3559.       3559.       3559.    
        3559.       3559.       3560.       3560.       3560.       3566.       3566.       3566.       3571.       3571.    
        3571.       3574.       3574.       3574.       3576.       3576.       3576.       3575.       3575.       3575.    
        3575.       3575.       3575.       3580.       3580.       3580.       3584.       3584.       3584.       3587.    
        3587.       3587.       3587.       3585.       3585.       3585.       3582.       3582.       3582.       3580.    
        3580.       3580.       3578.       3578.       3578.       3581.       3581.       3581.       3584.       3584.    
        3584.       3582.       3582.       3582.       3581.       3581.       3581.       3580.       3580.       3580.    
        3578.       3578.       3578.       3578.       3578.       3579.       3579.       3579.       3580.       3579.    
        3580.       3580.       3580.       3581.       3585.       3587.       3587.       3599.       3603.       3606.    
        3606.       3607.       3607.       3609.       3611.       3611.    
  84    3552.       3549.       3545.       3541.       3541.       3538.       3534.       3532.       3528.       3528.    
        3526.       3522.       3518.       3512.       3503.       3503.       3495.       3495.       3495.       3495.    
        3495.       3495.       3495.       3498.       3498.       3498.       3501.       3501.       3501.       3502.    
        3502.       3502.       3503.       3503.       3503.       3504.       3504.       3504.       3506.       3506.    
        3506.       3510.       3510.       3510.       3511.       3511.       3511.       3512.       3512.       3512.    
        3511.       3511.       3511.       3518.       3518.       3518.       3531.       3531.       3531.       3534.    
        3534.       3534.       3529.       3529.       3529.       3525.       3525.       3525.       3526.       3526.    
        3526.       3531.       3531.       3531.       3531.       3534.       3534.       3534.       3537.       3537.    
        3537.       3538.       3538.       3538.       3542.       3542.       3542.       3548.       3548.       3548.    
        3556.       3556.       3556.       3557.       3557.       3557.       3557.       3557.       3557.       3558.    
        3558.       3558.       3560.       3560.       3560.       3565.       3565.       3565.       3570.       3570.    
        3570.       3576.       3576.       3576.       3578.       3578.       3578.       3578.       3578.       3578.    
        3577.       3577.       3577.       3579.       3579.       3579.       3581.       3581.       3581.       3583.    
        3583.       3583.       3583.       3585.       3585.       3585.       3588.       3588.       3588.       3588.    
        3588.       3588.       3588.       3588.       3588.       3589.       3589.       3589.       3591.       3591.    
        3591.       3592.       3592.       3592.       3588.       3588.       3588.       3583.       3583.       3583.    
        3580.       3580.       3580.       3579.       3579.       3578.       3578.       3578.       3581.       3583.    
        3584.       3584.       3585.       3588.       3593.       3598.       3598.       3599.       3608.       3608.    
        3610.       3613.       3613.       3615.       3613.       3612.    
  85    3552.       3550.       3546.       3542.       3542.       3538.       3534.       3531.       3528.       3528.    
        3526.       3522.       3516.       3510.       3504.       3504.       3497.       3497.       3497.       3498.    
        3498.       3498.       3498.       3504.       3504.       3504.       3500.       3500.       3500.       3499.    
        3499.       3499.       3500.       3500.       3500.       3502.       3502.       3502.       3506.       3506.    
        3506.       3511.       3511.       3511.       3511.       3511.       3511.       3510.       3510.       3510.    
        3513.       3513.       3513.       3519.       3519.       3519.       3533.       3533.       3533.       3536.    
        3536.       3536.       3539.       3539.       3539.       3532.       3532.       3532.       3530.       3530.    
        3530.       3534.       3534.       3534.       3534.       3536.       3536.       3536.       3536.       3536.    
        3536.       3536.       3536.       3536.       3540.       3540.       3540.       3545.       3545.       3545.    
        3552.       3552.       3552.       3558.       3558.       3558.       3557.       3557.       3557.       3557.    
        3557.       3557.       3562.       3562.       3562.       3568.       3568.       3568.       3572.       3572.    
        3572.       3574.       3574.       3574.       3577.       3577.       3577.       3582.       3582.       3582.    
        3584.       3584.       3584.       3583.       3583.       3583.       3583.       3583.       3583.       3586.    
        3586.       3586.       3586.       3589.       3589.       3589.       3592.       3592.       3592.       3593.    
        3593.       3593.       3593.       3593.       3593.       3594.       3594.       3594.       3600.       3600.    
        3600.       3601.       3601.       3601.       3600.       3600.       3600.       3594.       3594.       3594.    
        3589.       3589.       3589.       3588.       3588.       3587.       3587.       3586.       3588.       3589.    
        3589.       3589.       3592.       3596.       3600.       3605.       3605.       3608.       3608.       3613.    
        3612.       3614.       3614.       3616.       3618.       3617.    
  86    3557.       3550.       3546.       3544.       3544.       3541.       3536.       3531.       3526.       3526.    
        3521.       3516.       3510.       3505.       3501.       3501.       3501.       3501.       3501.       3505.    
        3505.       3505.       3505.       3505.       3505.       3505.       3503.       3503.       3503.       3499.    
        3499.       3499.       3500.       3500.       3500.       3503.       3503.       3503.       3507.       3507.    
        3507.       3509.       3509.       3509.       3509.       3509.       3509.       3508.       3508.       3508.    
        3512.       3512.       3512.       3517.       3517.       3517.       3530.       3530.       3530.       3545.    
        3545.       3545.       3546.       3546.       3546.       3541.       3541.       3541.       3536.       3536.    
        3536.       3538.       3538.       3538.       3538.       3537.       3537.       3537.       3538.       3538.    
        3538.       3540.       3540.       3540.       3541.       3541.       3541.       3543.       3543.       3543.    
        3547.       3547.       3547.       3553.       3553.       3553.       3558.       3558.       3558.       3561.    
        3561.       3561.       3569.       3569.       3569.       3577.       3577.       3577.       3579.       3579.    
        3579.       3578.       3578.       3578.       3581.       3581.       3581.       3585.       3585.       3585.    
        3587.       3587.       3587.       3588.       3588.       3588.       3589.       3589.       3589.       3591.    
        3591.       3591.       3591.       3593.       3593.       3593.       3595.       3595.       3595.       3594.    
        3594.       3594.       3594.       3594.       3594.       3597.       3597.       3597.       3600.       3600.    
        3600.       3600.       3600.       3600.       3602.       3602.       3602.       3603.       3603.       3603.    
        3599.       3599.       3599.       3596.       3596.       3593.       3593.       3592.       3593.       3596.    
        3597.       3597.       3599.       3601.       3601.       3603.       3603.       3609.       3612.       3613.    
        3612.       3614.       3614.       3616.       3617.       3617.    
  87    3557.       3550.       3546.       3544.       3544.       3541.       3536.       3531.       3526.       3526.    
        3521.       3516.       3510.       3505.       3501.       3501.       3501.       3501.       3501.       3505.    
        3505.       3505.       3505.       3505.       3505.       3505.       3503.       3503.       3503.       3499.    
        3499.       3499.       3500.       3500.       3500.       3503.       3503.       3503.       3507.       3507.    
        3507.       3509.       3509.       3509.       3509.       3509.       3509.       3508.       3508.       3508.    
        3512.       3512.       3512.       3517.       3517.       3517.       3530.       3530.       3530.       3545.    
        3545.       3545.       3546.       3546.       3546.       3541.       3541.       3541.       3536.       3536.    
        3536.       3538.       3538.       3538.       3538.       3537.       3537.       3537.       3538.       3538.    
        3538.       3540.       3540.       3540.       3541.       3541.       3541.       3543.       3543.       3543.    
        3547.       3547.       3547.       3553.       3553.       3553.       3558.       3558.       3558.       3561.    
        3561.       3561.       3569.       3569.       3569.       3577.       3577.       3577.       3579.       3579.    
        3579.       3578.       3578.       3578.       3581.       3581.       3581.       3585.       3585.       3585.    
        3587.       3587.       3587.       3588.       3588.       3588.       3589.       3589.       3589.       3591.    
        3591.       3591.       3591.       3593.       3593.       3593.       3595.       3595.       3595.       3594.    
        3594.       3594.       3594.       3594.       3594.       3597.       3597.       3597.       3600.       3600.    
        3600.       3600.       3600.       3600.       3602.       3602.       3602.       3603.       3603.       3603.    
        3599.       3599.       3599.       3596.       3596.       3593.       3593.       3592.       3593.       3596.    
        3597.       3597.       3599.       3601.       3601.       3603.       3603.       3609.       3612.       3613.    
        3612.       3614.       3614.       3616.       3617.       3617.    
  88    3560.       3553.       3549.       3546.       3546.       3543.       3538.       3532.       3526.       3526.    
        3520.       3516.       3508.       3505.       3506.       3506.       3500.       3500.       3500.       3504.    
        3504.       3504.       3504.       3507.       3507.       3507.       3505.       3505.       3505.       3501.    
        3501.       3501.       3502.       3502.       3502.       3505.       3505.       3505.       3506.       3506.    
        3506.       3511.       3511.       3511.       3510.       3510.       3510.       3511.       3511.       3511.    
        3513.       3513.       3513.       3518.       3518.       3518.       3531.       3531.       3531.       3545.    
        3545.       3545.       3546.       3546.       3546.       3541.       3541.       3541.       3541.       3541.    
        3541.       3540.       3540.       3540.       3540.       3537.       3537.       3537.       3537.       3537.    
        3537.       3538.       3538.       3538.       3540.       3540.       3540.       3541.       3541.       3541.    
        3542.       3542.       3542.       3545.       3545.       3545.       3551.       3551.       3551.       3561.    
        3561.       3561.       3571.       3571.       3571.       3578.       3578.       3578.       3581.       3581.    
        3581.       3582.       3582.       3582.       3584.       3584.       3584.       3585.       3585.       3585.    
        3585.       3585.       3585.       3586.       3586.       3586.       3587.       3587.       3587.       3588.    
        3588.       3588.       3588.       3589.       3589.       3589.       3593.       3593.       3593.       3596.    
        3596.       3596.       3596.       3596.       3596.       3598.       3598.       3598.       3598.       3598.    
        3598.       3600.       3600.       3600.       3602.       3602.       3602.       3605.       3605.       3605.    
        3605.       3605.       3605.       3603.       3603.       3602.       3602.       3597.       3595.       3596.    
        3598.       3598.       3601.       3603.       3603.       3603.       3603.       3606.       3609.       3611.    
        3616.       3619.       3619.       3620.       3618.       3618.    
  89    3559.       3553.       3548.       3543.       3543.       3540.       3536.       3531.       3525.       3525.    
        3519.       3514.       3512.       3507.       3508.       3508.       3506.       3506.       3506.       3508.    
        3508.       3508.       3508.       3502.       3502.       3502.       3502.       3502.       3502.       3502.    
        3502.       3502.       3504.       3504.       3504.       3504.       3504.       3504.       3507.       3507.    
        3507.       3509.       3509.       3509.       3517.       3517.       3517.       3518.       3518.       3518.    
        3517.       3517.       3517.       3521.       3521.       3521.       3529.       3529.       3529.       3543.    
        3543.       3543.       3546.       3546.       3546.       3547.       3547.       3547.       3546.       3546.    
        3546.       3543.       3543.       3543.       3543.       3539.       3539.       3539.       3539.       3539.    
        3539.       3538.       3538.       3538.       3537.       3537.       3537.       3538.       3538.       3538.    
        3540.       3540.       3540.       3546.       3546.       3546.       3551.       3551.       3551.       3556.    
        3556.       3556.       3566.       3566.       3566.       3576.       3576.       3576.       3581.       3581.    
        3581.       3581.       3581.       3581.       3586.       3586.       3586.       3586.       3586.       3586.    
        3584.       3584.       3584.       3583.       3583.       3583.       3584.       3584.       3584.       3586.    
        3586.       3586.       3586.       3591.       3591.       3591.       3594.       3594.       3594.       3596.    
        3596.       3596.       3597.       3597.       3597.       3598.       3598.       3598.       3599.       3599.    
        3599.       3603.       3603.       3603.       3603.       3603.       3603.       3607.       3607.       3607.    
        3611.       3611.       3611.       3608.       3608.       3605.       3605.       3603.       3602.       3602.    
        3599.       3599.       3599.       3601.       3603.       3605.       3605.       3609.       3612.       3616.    
        3616.       3621.       3621.       3625.       3622.       3622.    
 # Output Control file created on 29/01/2021 by ModelMuse version 4.3.0.0.

 OUTPUT CONTROL IS SPECIFIED ONLY AT TIME STEPS FOR WHICH OUTPUT IS DESIRED
 DRAWDOWN WILL BE SAVED WITH FORMAT: (10(1X1PE13.5))     
 SAVED DRAWDOWN WILL BE LABELED
 COMPACT CELL-BY-CELL BUDGET FILES WILL BE WRITTEN
 AUXILIARY DATA WILL BE SAVED IN CELL-BY-CELL BUDGET FILES
 HEAD PRINT FORMAT CODE IS   0    DRAWDOWN PRINT FORMAT CODE IS   0
 HEADS WILL BE SAVED ON UNIT   37    DRAWDOWNS WILL BE SAVED ON UNIT   38
 # NWT: Newton Solver file created on 29/01/2021 by ModelMuse version 4.3.0.0.

 NWT1 -- Newton Solver, VERSION 1.1.4, 4/01/2018
         INPUT READ FROM UNIT133

 SIMPLE OPTION:
 DEFAULT SOLVER INPUT VALUES REFLECT NEARLY LINEAR MODEL
 ***XMD linear solver will be used***
 
   CONVERGENCE CRITERION OF   0.100000E-01 FOR HEAD SOLUTION
   AND A TOLERANCE OF   0.600000E-01 FOR FLOW SOLUTION AND 
   A MAXIMUM OF   250 OUTER ITERATIONS. 


   D-B-D REDUCTION FACTOR OF    0.970000E+00 AND 
   A D-B-D INCREASE FACTOR OF    0.100000E-03 AND 
   A D-B-D RELAXATION OF    0.000000E+00 AND 
   A MOMENTUM FACTOR OF    0.000000E+00 .


 ***BACKTRACKING IS INACTIVE***
 XMD -- LINEAR SOLUTION BY XMD PACKAGE VERSION 1.30
     BY MOTOMU IBARAKI, OHIO STATE UNIVERSITY, COLOMBUS, OH
                 INPUT READ FROM UNIT133
 ACCELERATION METHOD                    (IACL) =         1
 NODE ORDERING FLAG                   (NORDER) =         0
 LEVEL OF FILL                         (LEVEL) =         1
 MAXIMUM NUMBER OF ORTHOGONALIZATIONS  (NORTH) =         5
 INDEX FOR USING REDUCED SYSTEM      (IREDSYS) =         1
 RESID. REDUCTION CONVERGE CRITERION  (RRCTOL) =  0.000000E+00
 INDEX FOR USING DROP TOLERANCE     (IDROPTOL) =         1
 DROP TOLERANCE VALUE                  (EPSRN) =  0.500000E-02
 CONVERGENCE CRITERIA OF           (HCLOSEXMD) =  0.100000E-02
 MAX. NUMBER OF LINEAR ITERATIONS  (MXITERXMD) =        50


 UPW1 -- UPSTREAM WEIGHTING FLOW PACKAGE, VERSION 1.1.4, 4/01/2018
         INPUT READ FROM UNIT134

 # UPW: Upstream Weighting package file created on 29/01/2021 by ModelMuse version 4.3.0.0.
 CELL-BY-CELL FLOWS WILL BE SAVED ON UNIT    9
 No named parameters

   LAYER FLAGS:
 LAYER       LAYTYP          LAYAVG    CHANI           LAYVKA           LAYWET
 ---------------------------------------------------------------------------
    1             1             0    -1.000E+00             0             0
    2             1             0    -1.000E+00             0             0
    3             0             0    -1.000E+00             0             0
    4             0             0    -1.000E+00             0             0

   INTERPRETATION OF LAYER FLAGS:
                        INTERBLOCK     HORIZONTAL    DATA IN
         LAYER TYPE   TRANSMISSIVITY   ANISOTROPY   ARRAY VKA   WETTABILITY
 LAYER   (LAYTYP)        (LAYAVG)      (CHANI)     (LAYVKA)       (LAYWET)
 ---------------------------------------------------------------------------
    1   CONVERTIBLE      HARMONIC      VARIABLE    VERTICAL K  NON-WETTABLE
    2   CONVERTIBLE      HARMONIC      VARIABLE    VERTICAL K  NON-WETTABLE
    3      CONFINED      HARMONIC      VARIABLE    VERTICAL K  NON-WETTABLE
    4      CONFINED      HARMONIC      VARIABLE    VERTICAL K  NON-WETTABLE



              HYD. COND. ALONG ROWS FOR LAYER   1
 READING ON UNIT  134 WITH FORMAT: (FREE)              

            1           2           3           4           5           6           7           8           9          10
           11          12          13          14          15          16          17          18          19          20
           21          22          23          24          25          26          27          28          29          30
           31          32          33          34          35          36          37          38          39          40
           41          42          43          44          45          46          47          48          49          50
           51          52          53          54          55          56          57          58          59          60
           61          62          63          64          65          66          67          68          69          70
           71          72          73          74          75          76          77          78          79          80
           81          82          83          84          85          86          87          88          89          90
           91          92          93          94          95          96          97          98          99         100
          101         102         103         104         105         106         107         108         109         110
          111         112         113         114         115         116         117         118         119         120
          121         122         123         124         125         126         127         128         129         130
          131         132         133         134         135         136         137         138         139         140
          141         142         143         144         145         146         147         148         149         150
          151         152         153         154         155         156         157         158         159         160
          161         162         163         164         165         166         167         168         169         170
          171         172         173         174         175         176         177         178         179         180
          181         182         183         184         185         186
 ........................................................................................................................
   1    1.814       1.814       1.814       1.814       1.814       3.629       3.629       3.629       3.629       3.629    
        1.814       1.814       1.814       1.814       1.814       1.814       1.814       1.814       1.814       1.814    
        1.814       1.814       1.814       1.814       1.814       1.814       1.814       1.814       1.814       1.814    
        1.814       1.814       1.814       1.814       1.814       1.814       1.814       1.814       1.814       1.814    
        1.814       1.814       1.814       1.814       1.814       1.814       1.814       1.814       1.814       1.814    
        1.814       1.814       1.814       1.814       1.814       1.814       1.814       1.814       1.814       1.814    
        1.814       1.814       1.814       1.814       1.814       1.814       1.814       1.814       1.814       1.814    
        1.814       1.814       1.814       1.814       1.814       1.814       1.814       1.814       1.814       1.814    
        1.814       1.814       1.814       1.814       1.814       1.814       1.814       1.814       1.814       1.814    
        1.814       1.814       1.814       1.814       1.814       1.814       1.814      0.8640      0.8640      0.8640    
       0.8640      0.8640      0.8640      0.8640      0.8640      0.8640      0.8640      0.8640      0.8640      0.8640    
       0.8640      0.8640      0.8640      0.8640      0.8640      0.8640      0.8640      0.8640      0.8640      0.8640    
       0.8640      0.8640      0.8640      0.8640      0.8640      0.8640      0.8640      0.8640      0.8640      0.8640    
       0.8640      0.8640      0.8640      0.8640      0.8640      0.8640      0.8640      0.8640      0.8640      0.8640    
       0.8640      0.8640      0.8640      0.8640      0.8640      0.8640      0.8640      0.8640      0.8640      0.8640    
       0.8640      0.8640      0.8640      0.8640      0.8640      0.8640      0.8640      0.8640      0.8640      0.8640    
       0.8640      0.8640      0.8640      0.8640      0.8640      0.8640      0.8640      0.8640      0.8640      0.8640    
       0.8640      0.8640      0.8640      0.8640      0.8640      0.8640      0.8640      0.8640      0.8640      0.8640    
       0.8640      0.8640      0.8640      0.8640      0.8640      0.8640    
   2    1.814       1.814       1.814       1.814       1.814       3.629       3.629       3.629       3.629       3.629    
        1.814       1.814       1.814       1.814       1.814       1.814       1.814       1.814       1.814       1.814    
        1.814       1.814       1.814       1.814       1.814       1.814       1.814       1.814       1.814       1.814    
        1.814       1.814       1.814       1.814       1.814       1.814       1.814       1.814       1.814       1.814    
        1.814       1.814       1.814       1.814       1.814       1.814       1.814       1.814       1.814       1.814    
        1.814       1.814       1.814       1.814       1.814       1.814       1.814       1.814       1.814       1.814    
        1.814       1.814       1.814       1.814       1.814       1.814       1.814       1.814       1.814       1.814    
        1.814       1.814       1.814       1.814       1.814       1.814       1.814       1.814       1.814       1.814    
        1.814       1.814       1.814       1.814       1.814       1.814       1.814       1.814       1.814       1.814    
        1.814       1.814       1.814       1.814       1.814       1.814       1.814       1.814       1.814       1.814    
        1.814       1.814       1.814       1.814      0.8640      0.8640      0.8640      0.8640      0.8640      0.8640    
       0.8640      0.8640      0.8640      0.8640      0.8640      0.8640      0.8640      0.8640      0.8640      0.8640    
       0.8640      0.8640      0.8640      0.8640      0.8640      0.8640      0.8640      0.8640      0.8640      0.8640    
       0.8640      0.8640      0.8640      0.8640      0.8640      0.8640      0.8640      0.8640      0.8640      0.8640    
       0.8640      0.8640      0.8640      0.8640      0.8640      0.8640      0.8640      0.8640      0.8640      0.8640    
       0.8640      0.8640      0.8640      0.8640      0.8640      0.8640      0.8640      0.8640      0.8640      0.8640    
       0.8640      0.8640      0.8640      0.8640      0.8640      0.8640      0.8640      0.8640      0.8640      0.8640    
       0.8640      0.8640      0.8640      0.8640      0.8640      0.8640      0.8640      0.8640      0.8640      0.8640    
       0.8640      0.8640      0.8640      0.8640      0.8640      0.8640    
   3    1.814       1.814       1.814       1.814       1.814       3.629       3.629       3.629       3.629       3.629    
        1.814       1.814       1.814       1.814       1.814       1.814       1.814       1.814       1.814       1.814    
        1.814       1.814       1.814       1.814       1.814       1.814       1.814       1.814       1.814       1.814    
        1.814       1.814       1.814       1.814       1.814       1.814       1.814       1.814       1.814       1.814    
        1.814       1.814       1.814       1.814       1.814       1.814       1.814       1.814       1.814       1.814    
        1.814       1.814       1.814       1.814       1.814       1.814       1.814       1.814       1.814       1.814    
        1.814       1.814       1.814       1.814       1.814       1.814       1.814       1.814       1.814       1.814    
        1.814       1.814       1.814       1.814       1.814       1.814       1.814       1.814       1.814       1.814    
        1.814       1.814       1.814       1.814       1.814       1.814       1.814       1.814       1.814       1.814    
        1.814       1.814       1.814       1.814       1.814       1.814       1.814       1.814       1.814       1.814    
        1.814       1.814       1.814       1.814       1.814       1.814       1.814       1.814       1.814       1.814    
        1.814       1.814      0.8640      0.8640      0.8640      0.8640      0.8640      0.8640      0.8640      0.8640    
       0.8640      0.8640      0.8640      0.8640      0.8640      0.8640      0.8640      0.8640      0.8640      0.8640    
       0.8640      0.8640      0.8640      0.8640      0.8640      0.8640      0.8640      0.8640      0.8640      0.8640    
       0.8640      0.8640      0.8640      0.8640      0.8640      0.8640      0.8640      0.8640      0.8640      0.8640    
       0.8640      0.8640      0.8640      0.8640      0.8640      0.8640      0.8640      0.8640      0.8640      0.8640    
       0.8640      0.8640      0.8640      0.8640      0.8640      0.8640      0.8640      0.8640      0.8640      0.8640    
       0.8640      0.8640      0.8640      0.8640      0.8640      0.8640      0.8640      0.8640      0.8640      0.8640    
       0.8640      0.8640      0.8640       1.814       1.814       1.814    
   4    1.814       1.814       1.814       1.814       1.814       3.629       3.629       3.629       3.629       3.629    
        1.814       1.814       1.814       1.814       1.814       1.814       1.814       1.814       1.814       1.814    
        1.814       1.814       1.814       1.814       1.814       1.814       1.814       1.814       1.814       1.814    
        1.814       1.814       1.814       1.814       1.814       1.814       1.814       1.814       1.814       1.814    
        1.814       1.814       1.814       1.814       1.814       1.814       1.814       1.814       1.814       1.814    
        1.814       1.814       1.814       1.814       1.814       1.814       1.814       1.814       1.814       1.814    
        1.814       1.814       1.814       1.814       1.814       1.814       1.814       1.814       1.814       1.814    
        1.814       1.814       1.814       1.814       1.814       1.814       1.814       1.814       1.814       1.814    
        1.814       1.814       1.814       1.814       1.814       1.814       1.814       1.814       1.814       1.814    
        1.814       1.814       1.814       1.814       1.814       1.814       1.814       1.814       1.814       1.814    
        1.814       1.814       1.814       1.814       1.814       1.814       1.814       1.814       1.814       1.814    
        1.814       1.814       1.814       1.814       1.814       1.814       1.814       1.814       1.814       1.814    
        1.814       1.814       1.814       1.814       1.814       1.814       1.814       1.814       1.814       1.814    
        1.814       1.814       1.814       1.814      0.8640      0.8640      0.8640      0.8640      0.8640      0.8640    
       0.8640      0.8640      0.8640      0.8640      0.8640      0.8640      0.8640      0.8640      0.8640      0.8640    
       0.8640      0.8640      0.8640      0.8640      0.8640      0.8640      0.8640      0.8640      0.8640      0.8640    
       0.8640      0.8640      0.8640      0.8640      0.8640      0.8640      0.8640      0.8640      0.8640      0.8640    
       0.8640      0.8640      0.8640       1.814       1.814       1.814       1.814       1.814       1.814       1.814    
        1.814       1.814       1.814       1.814       1.814       1.814    
   5    1.814       1.814       1.814       1.814       1.814       3.629       3.629       3.629       3.629       3.629    
        1.814       1.814       1.814       1.814       1.814       1.814       1.814       1.814       1.814       1.814    
        1.814       1.814       1.814       1.814       1.814       1.814       1.814       1.814       1.814       1.814    
        1.814       1.814       1.814       1.814       1.814       1.814       1.814       1.814       1.814       1.814    
        1.814       1.814       1.814       1.814       1.814       1.814       1.814       1.814       1.814       1.814    
        1.814       1.814       1.814       1.814       1.814       1.814       1.814       1.814       1.814       1.814    
        1.814       1.814       1.814       1.814       1.814       1.814       1.814       1.814       1.814       1.814    
        1.814       1.814       1.814       1.814       1.814       1.814       1.814       1.814       1.814       1.814    
        1.814       1.814       1.814       1.814       1.814       1.814       1.814       1.814       1.814       1.814    
        1.814       1.814       1.814       1.814       1.814       1.814       1.814       1.814       1.814       1.814    
        1.814       1.814       1.814       1.814       1.814       1.814       1.814       1.814       1.814       1.814    
        1.814       1.814       1.814       1.814       1.814       1.814       1.814       1.814       1.814       1.814    
        1.814       1.814       1.814       1.814       1.814       1.814       1.814       1.814       1.814       1.814    
        1.814       1.814       1.814       1.814       1.814       1.814       1.814       1.814       1.814       1.814    
        1.814       1.814       1.814       1.814       1.814       1.814       1.814       1.814       1.814       1.814    
        1.814       1.814       1.814       1.814       1.814       1.814       1.814       1.814       1.814       1.814    
        1.814       1.814       1.814       1.814       1.814       1.814       1.814       1.814       1.814       1.814    
        1.814       1.814       1.814       1.814       1.814       1.814       1.814       1.814       1.814       1.814    
        1.814       1.814       1.814       1.814       1.814       1.814    
   6    1.814       1.814       1.814       1.814       1.814       1.814       3.629       3.629       3.629       3.629    
        1.814       1.814       1.814       1.814       1.814       1.814       1.814       1.814       1.814       1.814    
        1.814       1.814       1.814       1.814       1.814       1.814       1.814       1.814       1.814       1.814    
        1.814       1.814       1.814       1.814       1.814       1.814       1.814       1.814       1.814       1.814    
        1.814       1.814       1.814       1.814       1.814       1.814       1.814       1.814       1.814       1.814    
        1.814       1.814       1.814       1.814       1.814       1.814       1.814       1.814       1.814       1.814    
        1.814       1.814       1.814       1.814       1.814       1.814       1.814       1.814       1.814       1.814    
        1.814       1.814       1.814       1.814       1.814       1.814       1.814       1.814       1.814       1.814    
        1.814       1.814       1.814       1.814       1.814       1.814       1.814       1.814       1.814       1.814    
        1.814       1.814       1.814       1.814       1.814       1.814       1.814       1.814       1.814       1.814    
        1.814       1.814       1.814       1.814       1.814       1.814       1.814       1.814       1.814       1.814    
        1.814       1.814       1.814       1.814       1.814       1.814       1.814       1.814       1.814       1.814    
        1.814       1.814       1.814       1.814       1.814       1.814       1.814       1.814       1.814       1.814    
        1.814       1.814       1.814       1.814       1.814       1.814       1.814       1.814       1.814       1.814    
        1.814       1.814       1.814       1.814       1.814       1.814       1.814       1.814       1.814       1.814    
        1.814       1.814       1.814       1.814       1.814       1.814       1.814       1.814       1.814       1.814    
        1.814       1.814       1.814       1.814       1.814       1.814       1.814       1.814       1.814       1.814    
        1.814       1.814       1.814       1.814       1.814       1.814       1.814       1.814       1.814       1.814    
        1.814       1.814       1.814       1.814       1.814       1.814    
   7    1.814       1.814       1.814       1.814       1.814       1.814       3.629       3.629       3.629       3.629    
        3.629       1.814       1.814       1.814       1.814       1.814       1.814       1.814       1.814       1.814    
        1.814       1.814       1.814       1.814       1.814       1.814       1.814       1.814       1.814       1.814    
        1.814       1.814       1.814       1.814       1.814       1.814       1.814       1.814       1.814       1.814    
        1.814       1.814       1.814       1.814       1.814       1.814       1.814       1.814       1.814       1.814    
        1.814       1.814       1.814       1.814       1.814       1.814       1.814       1.814       1.814       1.814    
        1.814       1.814       1.814       1.814       1.814       1.814       1.814       1.814       1.814       1.814    
        1.814       1.814       1.814       1.814       1.814       1.814       1.814       1.814       1.814       1.814    
        1.814       1.814       1.814       1.814       1.814       1.814       1.814       1.814       1.814       1.814    
        1.814       1.814       1.814       1.814       1.814       1.814       1.814       1.814       1.814       1.814    
        1.814       1.814       1.814       1.814       1.814       1.814       1.814       1.814       1.814       1.814    
        1.814       1.814       1.814       1.814       1.814       1.814       1.814       1.814       1.814       1.814    
        1.814       1.814       1.814       1.814       1.814       1.814       1.814       1.814       1.814       1.814    
        1.814       1.814       1.814       1.814       1.814       1.814       1.814       1.814       1.814       1.814    
        1.814       1.814       1.814       1.814       1.814       1.814       1.814       1.814       1.814       1.814    
        1.814       1.814       1.814       1.814       1.814       1.814       1.814       1.814       1.814       1.814    
        1.814       1.814       1.814       1.814       1.814       1.814       1.814       1.814       1.814       1.814    
        1.814       1.814       1.814       1.814       1.814       1.814       1.814       1.814       1.814       1.814    
        1.814       1.814       1.814       1.814       1.814       1.814    
   8    1.814       1.814       1.814       1.814       1.814       1.814       3.629       3.629       3.629       3.629    
        3.629       1.814       1.814       1.814       1.814       1.814       1.814       1.814       1.814       1.814    
        1.814       1.814       1.814       1.814       1.814       1.814       1.814       1.814       1.814       1.814    
        1.814       1.814       1.814       1.814       1.814       1.814       1.814       1.814       1.814       1.814    
        1.814       1.814       1.814       1.814       1.814       1.814       1.814       1.814       1.814       1.814    
        1.814       1.814       1.814       1.814       1.814       1.814       1.814       1.814       1.814       1.814    
        1.814       1.814       1.814       1.814       1.814       1.814       1.814       1.814       1.814       1.814    
        1.814       1.814       1.814       1.814       1.814       1.814       1.814       1.814       1.814       1.814    
        1.814       1.814       1.814       1.814       1.814       1.814       1.814       1.814       1.814       1.814    
        1.814       1.814       1.814       1.814       1.814       1.814       1.814       1.814       1.814       1.814    
        1.814       1.814       1.814       1.814       1.814       1.814       1.814       1.814       1.814       1.814    
        1.814       1.814       1.814       1.814       1.814       1.814       1.814       1.814       1.814       1.814    
        1.814       1.814       1.814       1.814       1.814       1.814       1.814       1.814       1.814       1.814    
        1.814       1.814       1.814       1.814       1.814       1.814       1.814       1.814       1.814       1.814    
        1.814       1.814       1.814       1.814       1.814       1.814       1.814       1.814       1.814       1.814    
        1.814       1.814       1.814       1.814       1.814       1.814       1.814       1.814       1.814       1.814    
        1.814       1.814       1.814       1.814       1.814       1.814       1.814       1.814       1.814       1.814    
        1.814       1.814       1.814       1.814       1.814       1.814       1.814       1.814       1.814       1.814    
        1.814       1.814       1.814       1.814       1.814       1.814    
   9   0.8640       1.814       1.814       1.814       1.814       1.814       1.814       3.629       3.629       3.629    
        3.629       1.814       1.814       1.814       1.814       1.814       1.814       1.814       1.814       1.814    
        1.814       1.814       1.814       1.814       1.814       1.814       1.814       1.814       1.814       1.814    
        1.814       1.814       1.814       1.814       1.814       1.814       1.814       1.814       1.814       1.814    
        1.814       1.814       1.814       1.814       1.814       1.814       1.814       1.814       1.814       1.814    
        1.814       1.814       1.814       1.814       1.814       1.814       1.814       1.814       1.814       1.814    
        1.814       1.814       1.814       1.814       1.814       1.814       1.814       1.814       1.814       1.814    
        1.814       1.814       1.814       1.814       1.814       1.814       1.814       1.814       1.814       1.814    
        1.814       1.814       1.814       1.814       1.814       1.814       1.814       1.814       1.814       1.814    
        1.814       1.814       1.814       1.814       1.814       1.814       1.814       1.814       1.814       1.814    
        1.814       1.814       1.814       1.814       1.814       1.814       1.814       1.814       1.814       1.814    
        1.814       1.814       1.814       1.814       1.814       1.814       1.814       1.814       1.814       1.814    
        1.814       1.814       1.814       1.814       1.814       1.814       1.814       1.814       1.814       1.814    
        1.814       1.814       1.814       1.814       1.814       1.814       1.814       1.814       1.814       1.814    
        1.814       1.814       1.814       1.814       1.814       1.814       1.814       1.814       1.814       1.814    
        1.814       1.814       1.814       1.814       1.814       1.814       1.814       1.814       1.814       1.814    
        1.814       1.814       1.814       1.814       1.814       1.814       1.814       1.814       1.814       1.814    
        1.814       1.814       1.814       1.814       1.814       1.814       1.814       1.814       1.814       1.814    
        1.814       1.814       1.814       1.814       1.814       1.814    
  10   0.8640       1.814       1.814       1.814       1.814       1.814       1.814       3.629       3.629       3.629    
        3.629       3.629       1.814       1.814       1.814       1.814       1.814       1.814       1.814       1.814    
        1.814       1.814       1.814       1.814       1.814       1.814       1.814       1.814       1.814       1.814    
        1.814       1.814       1.814       1.814       1.814       1.814       1.814       1.814       1.814       1.814    
        1.814       1.814       1.814       1.814       1.814       1.814       1.814       1.814       1.814       1.814    
        1.814       1.814       1.814       1.814       1.814       1.814       1.814       1.814       1.814       1.814    
        1.814       1.814       1.814       1.814       1.814       1.814       1.814       1.814       1.814       1.814    
        1.814       1.814       1.814       1.814       1.814       1.814       1.814       1.814       1.814       1.814    
        1.814       1.814       1.814       1.814       1.814       1.814       1.814       1.814       1.814       1.814    
        1.814       1.814       1.814       1.814       1.814       1.814       1.814       1.814       1.814       1.814    
        1.814       1.814       1.814       1.814       1.814       1.814       1.814       1.814       1.814       1.814    
        1.814       1.814       1.814       1.814       1.814       1.814       1.814       1.814       1.814       1.814    
        1.814       1.814       1.814       1.814       1.814       1.814       1.814       1.814       1.814       1.814    
        1.814       1.814       1.814       1.814       1.814       1.814       1.814       1.814       1.814       1.814    
        1.814       1.814       1.814       1.814       1.814       1.814       1.814       1.814       1.814       1.814    
        1.814       1.814       1.814       1.814       1.814       1.814       1.814       1.814       1.814       1.814    
        1.814       1.814       1.814       1.814       1.814       1.814       1.814       1.814       1.814       1.814    
        1.814       1.814       1.814       1.814       1.814       1.814       1.814       1.814       1.814       1.814    
        1.814       1.814       1.814       1.814       1.814       1.814    
  11   0.8640       1.814       1.814       1.814       1.814       1.814       1.814       3.629       3.629       3.629    
        3.629       3.629       1.814       1.814       1.814       1.814       1.814       1.814       1.814       1.814    
        1.814       1.814       1.814       1.814       1.814       1.814       1.814       1.814       1.814       1.814    
        1.814       1.814       1.814       1.814       1.814       1.814       1.814       1.814       1.814       1.814    
        1.814       1.814       1.814       1.814       1.814       1.814       1.814       1.814       1.814       1.814    
        1.814       1.814       1.814       1.814       1.814       1.814       1.814       1.814       1.814       1.814    
        1.814       1.814       1.814       1.814       1.814       1.814       1.814       1.814       1.814       1.814    
        1.814       1.814       1.814       1.814       1.814       1.814       1.814       1.814       1.814       1.814    
        1.814       1.814       1.814       1.814       1.814       1.814       1.814       1.814       1.814       1.814    
        1.814       1.814       1.814       1.814       1.814       1.814       1.814       1.814       1.814       1.814    
        1.814       1.814       1.814       1.814       1.814       1.814       1.814       1.814       1.814       1.814    
        1.814       1.814       1.814       1.814       1.814       1.814       1.814       1.814       1.814       1.814    
        1.814       1.814       1.814       1.814       1.814       1.814       1.814       1.814       1.814       1.814    
        1.814       1.814       1.814       1.814       1.814       1.814       1.814       1.814       1.814       1.814    
        1.814       1.814       1.814       1.814       1.814       1.814       1.814       1.814       1.814       1.814    
        1.814       1.814       1.814       1.814       1.814       1.814       1.814       1.814       1.814       1.814    
        1.814       1.814       1.814       1.814       1.814       1.814       1.814       1.814       1.814       1.814    
        1.814       1.814       1.814       1.814       1.814       1.814       1.814       1.814       1.814       1.814    
        1.814       1.814       1.814       1.814       1.814       1.814    
  12   0.8640      0.8640       1.814       1.814       1.814       1.814       1.814       3.629       3.629       3.629    
        3.629       3.629       1.814       1.814       1.814       1.814       1.814       1.814       1.814       1.814    
        1.814       1.814       1.814       1.814       1.814       1.814       1.814       1.814       1.814       1.814    
        1.814       1.814       1.814       1.814       1.814       1.814       1.814       1.814       1.814       1.814    
        1.814       1.814       1.814       1.814       1.814       1.814       1.814       1.814       1.814       1.814    
        1.814       1.814       1.814       1.814       1.814       1.814       1.814       1.814       1.814       1.814    
        1.814       1.814       1.814       1.814       1.814       1.814       1.814       1.814       1.814       1.814    
        1.814       1.814       1.814       1.814       1.814       1.814       1.814       1.814       1.814       1.814    
        1.814       1.814       1.814       1.814       1.814       1.814       1.814       1.814       1.814       1.814    
        1.814       1.814       1.814       1.814       1.814       1.814       1.814       1.814       1.814       1.814    
        1.814       1.814       1.814       1.814       1.814       1.814       1.814       1.814       1.814       1.814    
        1.814       1.814       1.814       1.814       1.814       1.814       1.814       1.814       1.814       1.814    
        1.814       1.814       1.814       1.814       1.814       1.814       1.814       1.814       1.814       1.814    
        1.814       1.814       1.814       1.814       1.814       1.814       1.814       1.814       1.814       1.814    
        1.814       1.814       1.814       1.814       1.814       1.814       1.814       1.814       1.814       1.814    
        1.814       1.814       1.814       1.814       1.814       1.814       1.814       1.814       1.814       1.814    
        1.814       1.814       1.814       1.814       1.814       1.814       1.814       1.814       1.814       1.814    
        1.814       1.814       1.814       1.814       1.814       1.814       1.814       1.814       1.814       1.814    
        1.814       1.814       1.814       1.814       1.814       1.814    
  13   0.8640      0.8640       1.814       1.814       1.814       1.814       1.814       3.629       3.629       3.629    
        3.629       3.629       1.814       1.814       1.814       1.814       1.814       1.814       1.814       1.814    
        1.814       1.814       1.814       1.814       1.814       1.814       1.814       1.814       1.814       1.814    
        1.814       1.814       1.814       1.814       1.814       1.814       1.814       1.814       1.814       1.814    
        1.814       1.814       1.814       1.814       1.814       1.814       1.814       1.814       1.814       1.814    
        1.814       1.814       1.814       1.814       1.814       1.814       1.814       1.814       1.814       1.814    
        1.814       1.814       1.814       1.814       1.814       1.814       1.814       1.814       1.814       1.814    
        1.814       1.814       1.814       1.814       1.814       1.814       1.814       1.814       1.814       1.814    
        1.814       1.814       1.814       1.814       1.814       1.814       1.814       1.814       1.814       1.814    
        1.814       1.814       1.814       1.814       1.814       1.814       1.814       1.814       1.814       1.814    
        1.814       1.814       1.814       1.814       1.814       1.814       1.814       1.814       1.814       1.814    
        1.814       1.814       1.814       1.814       1.814       1.814       1.814       1.814       1.814       1.814    
        1.814       1.814       1.814       1.814       1.814       1.814       1.814       1.814       1.814       1.814    
        1.814       1.814       1.814       1.814       1.814       1.814       1.814       1.814       1.814       1.814    
        1.814       1.814       1.814       1.814       1.814       1.814       1.814       1.814       1.814       1.814    
        1.814       1.814       1.814       1.814       1.814       1.814       1.814       1.814       1.814       1.814    
        1.814       1.814       1.814       1.814       1.814       1.814       1.814       1.814       1.814       1.814    
        1.814       1.814       1.814       1.814       1.814       1.814       1.814       1.814       1.814       1.814    
        1.814       1.814       1.814       1.814       1.814       1.814    
  14   0.8640      0.8640       1.814       1.814       1.814       1.814       1.814       3.629       3.629       3.629    
        3.629       3.629       1.814       1.814       1.814       1.814       1.814       1.814       1.814       1.814    
        1.814       1.814       1.814       1.814       1.814       1.814       1.814       1.814       1.814       1.814    
        1.814       1.814       1.814       1.814       1.814       1.814       1.814       1.814       1.814       1.814    
        1.814       1.814       1.814       1.814       1.814       1.814       1.814       1.814       1.814       1.814    
        1.814       1.814       1.814       1.814       1.814       1.814       1.814       1.814       1.814       1.814    
        1.814       1.814       1.814       1.814       1.814       1.814       1.814       1.814       1.814       1.814    
        1.814       1.814       1.814       1.814       1.814       1.814       1.814       1.814       1.814       1.814    
        1.814       1.814       1.814       1.814       1.814       1.814       1.814       1.814       1.814       1.814    
        1.814       1.814       1.814       1.814       1.814       1.814       1.814       1.814       1.814       1.814    
        1.814       1.814       1.814       1.814       1.814       1.814       1.814       1.814       1.814       1.814    
        1.814       1.814       1.814       1.814       1.814       1.814       1.814       1.814       1.814       1.814    
        1.814       1.814       1.814       1.814       1.814       1.814       1.814       1.814       1.814       1.814    
        1.814       1.814       1.814       1.814       1.814       1.814       1.814       1.814       1.814       1.814    
        1.814       1.814       1.814       1.814       1.814       1.814       1.814       1.814       1.814       1.814    
        1.814       1.814       1.814       1.814       1.814       1.814       1.814       1.814       1.814       1.814    
        1.814       1.814       1.814       1.814       1.814       1.814       1.814       1.814       1.814       1.814    
        1.814       1.814       1.814       1.814       1.814       1.814       1.814       1.814       1.814       1.814    
        1.814       1.814       1.814       1.814       1.814       1.814    
  15   0.8640      0.8640      0.8640       1.814       1.814       1.814       1.814       3.629       3.629       3.629    
        3.629       1.814       1.814       1.814       1.814       1.814       1.814       1.814       1.814       1.814    
        1.814       1.814       1.814       1.814       1.814       1.814       1.814       1.814       1.814       1.814    
        1.814       1.814       1.814       1.814       1.814       1.814       1.814       1.814       1.814       1.814    
        1.814       1.814       1.814       1.814       1.814       1.814       1.814       1.814       1.814       1.814    
        1.814       1.814       1.814       1.814       1.814       1.814       1.814       1.814       1.814       1.814    
        1.814       1.814       1.814       1.814       1.814       1.814       1.814       1.814       1.814       1.814    
        1.814       1.814       1.814       1.814       1.814       1.814       1.814       1.814       1.814       1.814    
        1.814       1.814       1.814       1.814       1.814       1.814       1.814       1.814       1.814       1.814    
        1.814       1.814       1.814       1.814       1.814       1.814       1.814       1.814       1.814       1.814    
        1.814       1.814       1.814       1.814       1.814       1.814       1.814       1.814       1.814       1.814    
        1.814       1.814       1.814       1.814       1.814       1.814       1.814       1.814       1.814       1.814    
        1.814       1.814       1.814       1.814       1.814       1.814       1.814       1.814       1.814       1.814    
        1.814       1.814       1.814       1.814       1.814       1.814       1.814       1.814       1.814       1.814    
        1.814       1.814       1.814       1.814       1.814       1.814       1.814       1.814       1.814       1.814    
        1.814       1.814       1.814       1.814       1.814       1.814       1.814       1.814       1.814       1.814    
        1.814       1.814       1.814       1.814       1.814       1.814       1.814       1.814       1.814       1.814    
        1.814       1.814       1.814       1.814       1.814       1.814       1.814       1.814       1.814       1.814    
        1.814       1.814       1.814       1.814       1.814       1.814    
  16   0.8640      0.8640      0.8640       1.814       1.814       1.814       1.814       3.629       3.629       3.629    
        3.629       1.814       1.814       1.814       1.814       1.814       1.814       1.814       1.814       1.814    
        1.814       1.814       1.814       1.814       1.814       1.814       1.814       1.814       1.814       1.814    
        1.814       1.814       1.814       1.814       1.814       1.814       1.814       1.814       1.814       1.814    
        1.814       1.814       1.814       1.814       1.814       1.814       1.814       1.814       1.814       1.814    
        1.814       1.814       1.814       1.814       1.814       1.814       1.814       1.814       1.814       1.814    
        1.814       1.814       1.814       1.814       1.814       1.814       1.814       1.814       1.814       1.814    
        1.814       1.814       1.814       1.814       1.814       1.814       1.814       1.814       1.814       1.814    
        1.814       1.814       1.814       1.814       1.814       1.814       1.814       1.814       1.814       1.814    
        1.814       1.814       1.814       1.814       1.814       1.814       1.814       1.814       1.814       1.814    
        1.814       1.814       1.814       1.814       1.814       1.814       1.814       1.814       1.814       1.814    
        1.814       1.814       1.814       1.814       1.814       1.814       1.814       1.814       1.814       1.814    
        1.814       1.814       1.814       1.814       1.814       1.814       1.814       1.814       1.814       1.814    
        1.814       1.814       1.814       1.814       1.814       1.814       1.814       1.814       1.814       1.814    
        1.814       1.814       1.814       1.814       1.814       1.814       1.814       1.814       1.814       1.814    
        1.814       1.814       1.814       1.814       1.814       1.814       1.814       1.814       1.814       1.814    
        1.814       1.814       1.814       1.814       1.814       1.814       1.814       1.814       1.814       1.814    
        1.814       1.814       1.814       1.814       1.814       1.814       1.814       1.814       1.814       1.814    
        1.814       1.814       1.814       1.814       1.814       1.814    
  17   0.8640      0.8640      0.8640       1.814       1.814       1.814       1.814       3.629       3.629       3.629    
        3.629       1.814       1.814       1.814       1.814       1.814       1.814       1.814       1.814       1.814    
        1.814       1.814       1.814       1.814       1.814       1.814       1.814       1.814       1.814       1.814    
        1.814       1.814       1.814       1.814       1.814       1.814       1.814       1.814       1.814       1.814    
        1.814       1.814       1.814       1.814       1.814       1.814       1.814       1.814       1.814       1.814    
        1.814       1.814       1.814       1.814       1.814       1.814       1.814       1.814       1.814       1.814    
        1.814       1.814       1.814       1.814       1.814       1.814       1.814       1.814       1.814       1.814    
        1.814       1.814       1.814       1.814       1.814       1.814       1.814       1.814       1.814       1.814    
        1.814       1.814       1.814       1.814       1.814       1.814       1.814       1.814       1.814       1.814    
        1.814       1.814       1.814       1.814       1.814       1.814       1.814       1.814       1.814       1.814    
        1.814       1.814       1.814       1.814       1.814       1.814       1.814       1.814       1.814       1.814    
        1.814       1.814       1.814       1.814       1.814       1.814       1.814       1.814       1.814       1.814    
        1.814       1.814       1.814       1.814       1.814       1.814       1.814       1.814       1.814       1.814    
        1.814       1.814       1.814       1.814       1.814       1.814       1.814       1.814       1.814       1.814    
        1.814       1.814       1.814       1.814       1.814       1.814       1.814       1.814       1.814       1.814    
        1.814       1.814       1.814       1.814       1.814       1.814       1.814       1.814       1.814       1.814    
        1.814       1.814       1.814       1.814       1.814       1.814       1.814       1.814       1.814       1.814    
        1.814       1.814       1.814       1.814       1.814       1.814       1.814       1.814       1.814       1.814    
        1.814       1.814       1.814       1.814       1.814       1.814    
  18   0.8640      0.8640      0.8640      0.8640       1.814       1.814       1.814       1.814       3.629       3.629    
        3.629       1.814       1.814       1.814       1.814       1.814       1.814       1.814       1.814       1.814    
        1.814       1.814       1.814       1.814       1.814       1.814       1.814       1.814       1.814       1.814    
        1.814       1.814       1.814       1.814       1.814       1.814       1.814       1.814       1.814       1.814    
        1.814       1.814       1.814       1.814       1.814       1.814       1.814       1.814       1.814       1.814    
        1.814       1.814       1.814       1.814       1.814       1.814       1.814       1.814       1.814       1.814    
        1.814       1.814       1.814       1.814       1.814       1.814       1.814       1.814       1.814       1.814    
        1.814       1.814       1.814       1.814       1.814       1.814       1.814       1.814       1.814       1.814    
        1.814       1.814       1.814       1.814       1.814       1.814       1.814       1.814       1.814       1.814    
        1.814       1.814       1.814       1.814       1.814       1.814       1.814       1.814       1.814       1.814    
        1.814       1.814       1.814       1.814       1.814       1.814       1.814       1.814       1.814       1.814    
        1.814       1.814       1.814       1.814       1.814       1.814       1.814       1.814       1.814       1.814    
        1.814       1.814       1.814       1.814       1.814       1.814       1.814       1.814       1.814       1.814    
        1.814       1.814       1.814       1.814       1.814       1.814       1.814       1.814       1.814       1.814    
        1.814       1.814       1.814       1.814       1.814       1.814       1.814       1.814       1.814       1.814    
        1.814       1.814       1.814       1.814       1.814       1.814       1.814       1.814       1.814       1.814    
        1.814       1.814       1.814       1.814       1.814       1.814       1.814       1.814       1.814       1.814    
        1.814       1.814       1.814       1.814       1.814       1.814       1.814       1.814       1.814       1.814    
        1.814       1.814       1.814       1.814       1.814       1.814    
  19   0.8640      0.8640      0.8640      0.8640       1.814       1.814       1.814       1.814       3.629       3.629    
        3.629       3.629       1.814       1.814       1.814       1.814       1.814       1.814       1.814       1.814    
        1.814       1.814       1.814       1.814       1.814       1.814       1.814       1.814       1.814       1.814    
        1.814       1.814       1.814       1.814       1.814       1.814       1.814       1.814       1.814       1.814    
        1.814       1.814       1.814       1.814       1.814       1.814       1.814       1.814       1.814       1.814    
        1.814       1.814       1.814       1.814       1.814       1.814       1.814       1.814       1.814       1.814    
        1.814       1.814       1.814       1.814       1.814       1.814       1.814       1.814       1.814       1.814    
        1.814       1.814       1.814       1.814       1.814       1.814       1.814       1.814       1.814       1.814    
        1.814       1.814       1.814       1.814       1.814       1.814       1.814       1.814       1.814       1.814    
        1.814       1.814       1.814       1.814       1.814       1.814       1.814       1.814       1.814       1.814    
        1.814       1.814       1.814       1.814       1.814       1.814       1.814       1.814       1.814       1.814    
        1.814       1.814       1.814       1.814       1.814       1.814       1.814       1.814       1.814       1.814    
        1.814       1.814       1.814       1.814       1.814       1.814       1.814       1.814       1.814       1.814    
        1.814       1.814       1.814       1.814       1.814       1.814       1.814       1.814       1.814       1.814    
        1.814       1.814       1.814       1.814       1.814       1.814       1.814       1.814       1.814       1.814    
        1.814       1.814       1.814       1.814       1.814       1.814       1.814       1.814       1.814       1.814    
        1.814       1.814       1.814       1.814       1.814       1.814       1.814       1.814       1.814       1.814    
        1.814       1.814       1.814       1.814       1.814       1.814       1.814       1.814       1.814       1.814    
        1.814       1.814       1.814       1.814       1.814       1.814    
  20   0.8640      0.8640      0.8640      0.8640       1.814       1.814       1.814       1.814       3.629       3.629    
        3.629       3.629       1.814       1.814       1.814       1.814       1.814       1.814       1.814       1.814    
        1.814       1.814       1.814       1.814       1.814       1.814       1.814       1.814       1.814       1.814    
        1.814       1.814       1.814       1.814       1.814       1.814       1.814       1.814       1.814       1.814    
        1.814       1.814       1.814       1.814       1.814       1.814       1.814       1.814       1.814       1.814    
        1.814       1.814       1.814       1.814       1.814       1.814       1.814       1.814       1.814       1.814    
        1.814       1.814       1.814       1.814       1.814       1.814       1.814       1.814       1.814       1.814    
        1.814       1.814       1.814       1.814       1.814       1.814       1.814       1.814       1.814       1.814    
        1.814       1.814       1.814       1.814       1.814       1.814       1.814       1.814       1.814       1.814    
        1.814       1.814       1.814       1.814       1.814       1.814       1.814       1.814       1.814       1.814    
        1.814       1.814       1.814       1.814       1.814       1.814       1.814       1.814       1.814       1.814    
        1.814       1.814       1.814       1.814       1.814       1.814       1.814       1.814       1.814       1.814    
        1.814       1.814       1.814       1.814       1.814       1.814       1.814       1.814       1.814       1.814    
        1.814       1.814       1.814       1.814       1.814       1.814       1.814       1.814       1.814       1.814    
        1.814       1.814       1.814       1.814       1.814       1.814       1.814       1.814       1.814       1.814    
        1.814       1.814       1.814       1.814       1.814       1.814       1.814       1.814       1.814       1.814    
        1.814       1.814       1.814       1.814       1.814       1.814       1.814       1.814       1.814       1.814    
        1.814       1.814       1.814       1.814       1.814       1.814       1.814       1.814       1.814       1.814    
        1.814       1.814       1.814       1.814       1.814       1.814    
  21   0.8640      0.8640      0.8640      0.8640       1.814       1.814       1.814       1.814       3.629       3.629    
        3.629       3.629       3.629       1.814       1.814       1.814       1.814       1.814       1.814       1.814    
        1.814       1.814       1.814       1.814       1.814       1.814       1.814       1.814       1.814       1.814    
        1.814       1.814       1.814       1.814       1.814       1.814       1.814       1.814       1.814       1.814    
        1.814       1.814       1.814       1.814       1.814       1.814       1.814       1.814       1.814       1.814    
        1.814       1.814       1.814       1.814       1.814       1.814       1.814       1.814       1.814       1.814    
        1.814       1.814       1.814       1.814       1.814       1.814       1.814       1.814       1.814       1.814    
        1.814       1.814       1.814       1.814       1.814       1.814       1.814       1.814       1.814       1.814    
        1.814       1.814       1.814       1.814       1.814       1.814       1.814       1.814       1.814       1.814    
        1.814       1.814       1.814       1.814       1.814       1.814       1.814       1.814       1.814       1.814    
        1.814       1.814       1.814       1.814       1.814       1.814       1.814       1.814       1.814       1.814    
        1.814       1.814       1.814       1.814       1.814       1.814       1.814       1.814       1.814       1.814    
        1.814       1.814       1.814       1.814       1.814       1.814       1.814       1.814       1.814       1.814    
        1.814       1.814       1.814       1.814       1.814       1.814       1.814       1.814       1.814       1.814    
        1.814       1.814       1.814       1.814       1.814       1.814       1.814       1.814       1.814       1.814    
        1.814       1.814       1.814       1.814       1.814       1.814       1.814       1.814       1.814       1.814    
        1.814       1.814       1.814       1.814       1.814       1.814       1.814       1.814       1.814       1.814    
        1.814       1.814       1.814       1.814       1.814       1.814       1.814       1.814       1.814       1.814    
        1.814       1.814       1.814       1.814       1.814       1.814    
  22   0.8640      0.8640      0.8640      0.8640       1.814       1.814       1.814       1.814       3.629       3.629    
        3.629       3.629       3.629       1.814       1.814       1.814       1.814       1.814       1.814       1.814    
        1.814       1.814       1.814       1.814       1.814       1.814       1.814       1.814       1.814       1.814    
        1.814       1.814       1.814       1.814       1.814       1.814       1.814       1.814       1.814       1.814    
        1.814       1.814       1.814       1.814       1.814       1.814       1.814       1.814       1.814       1.814    
        1.814       1.814       1.814       1.814       1.814       1.814       1.814       1.814       1.814       1.814    
        1.814       1.814       1.814       1.814       1.814       1.814       1.814       1.814       1.814       1.814    
        1.814       1.814       1.814       1.814       1.814       1.814       1.814       1.814       1.814       1.814    
        1.814       1.814       1.814       1.814       1.814       1.814       1.814       1.814       1.814       1.814    
        1.814       1.814       1.814       1.814       1.814       1.814       1.814       1.814       1.814       1.814    
        1.814       1.814       1.814       1.814       1.814       1.814       1.814       1.814       1.814       1.814    
        1.814       1.814       1.814       1.814       1.814       1.814       1.814       1.814       1.814       1.814    
        1.814       1.814       1.814       1.814       1.814       1.814       1.814       1.814       1.814       1.814    
        1.814       1.814       1.814       1.814       1.814       1.814       1.814       1.814       1.814       1.814    
        1.814       1.814       1.814       1.814       1.814       1.814       1.814       1.814       1.814       1.814    
        1.814       1.814       1.814       1.814       1.814       1.814       1.814       1.814       1.814       1.814    
        1.814       1.814       1.814       1.814       1.814       1.814       1.814       1.814       1.814       1.814    
        1.814       1.814       1.814       1.814       1.814       1.814       1.814       1.814       1.814       1.814    
        1.814       1.814       1.814       1.814       1.814       1.814    
  23   0.8640      0.8640      0.8640      0.8640       1.814       1.814       1.814       1.814       1.814       3.629    
        3.629       3.629       3.629       1.814       1.814       1.814       1.814       1.814       1.814       1.814    
        1.814       1.814       1.814       1.814       1.814       1.814       1.814       1.814       1.814       1.814    
        1.814       1.814       1.814       1.814       1.814       1.814       1.814       1.814       1.814       1.814    
        1.814       1.814       1.814       1.814       1.814       1.814       1.814       1.814       1.814       1.814    
        1.814       1.814       1.814       1.814       1.814       1.814       1.814       1.814       1.814       1.814    
        1.814       1.814       1.814       1.814       1.814       1.814       1.814       1.814       1.814       1.814    
        1.814       1.814       1.814       1.814       1.814       1.814       1.814       1.814       1.814       1.814    
        1.814       1.814       1.814       1.814       1.814       1.814       1.814       1.814       1.814       1.814    
        1.814       1.814       1.814       1.814       1.814       1.814       1.814       1.814       1.814       1.814    
        1.814       1.814       1.814       1.814       1.814       1.814       1.814       1.814       1.814       1.814    
        1.814       1.814       1.814       1.814       1.814       1.814       1.814       1.814       1.814       1.814    
        1.814       1.814       1.814       1.814       1.814       1.814       1.814       1.814       1.814       1.814    
        1.814       1.814       1.814       1.814       1.814       1.814       1.814       1.814       1.814       1.814    
        1.814       1.814       1.814       1.814       1.814       1.814       1.814       1.814       1.814       1.814    
        1.814       1.814       1.814       1.814       1.814       1.814       1.814       1.814       1.814       1.814    
        1.814       1.814       1.814       1.814       1.814       1.814       1.814       1.814       1.814       1.814    
        1.814       1.814       1.814       1.814       1.814       1.814       1.814       1.814       1.814       1.814    
        1.814       1.814       1.814       1.814       1.814       1.814    
  24   0.8640      0.8640      0.8640      0.8640       1.814       1.814       1.814       1.814       1.814       3.629    
        3.629       3.629       3.629       1.814       1.814       1.814       1.814       1.814       1.814       1.814    
        1.814       1.814       1.814       1.814       1.814       1.814       1.814       1.814       1.814       1.814    
        1.814       1.814       1.814       1.814       1.814       1.814       1.814       1.814       1.814       1.814    
        1.814       1.814       1.814       1.814       1.814       1.814       1.814       1.814       1.814       1.814    
        1.814       1.814       1.814       1.814       1.814       1.814       1.814       1.814       1.814       1.814    
        1.814       1.814       1.814       1.814       1.814       1.814       1.814       1.814       1.814       1.814    
        1.814       1.814       1.814       1.814       1.814       1.814       1.814       1.814       1.814       1.814    
        1.814       1.814       1.814       1.814       1.814       1.814       1.814       1.814       1.814       1.814    
        1.814       1.814       1.814       1.814       1.814       1.814       1.814       1.814       1.814       1.814    
        1.814       1.814       1.814       1.814       1.814       1.814       1.814       1.814       1.814       1.814    
        1.814       1.814       1.814       1.814       1.814       1.814       1.814       1.814       1.814       1.814    
        1.814       1.814       1.814       1.814       1.814       1.814       1.814       1.814       1.814       1.814    
        1.814       1.814       1.814       1.814       1.814       1.814       1.814       1.814       1.814       1.814    
        1.814       1.814       1.814       1.814       1.814       1.814       1.814       1.814       1.814       1.814    
        1.814       1.814       1.814       1.814       1.814       1.814       1.814       1.814       1.814       1.814    
        1.814       1.814       1.814       1.814       1.814       1.814       1.814       1.814       1.814       1.814    
        1.814       1.814       1.814       1.814       1.814       1.814       1.814       1.814       1.814       1.814    
        1.814       1.814       1.814       1.814       1.814       1.814    
  25   0.8640      0.8640      0.8640      0.8640       1.814       1.814       1.814       1.814       1.814       3.629    
        3.629       3.629       3.629       1.814       1.814       1.814       1.814       1.814       1.814       1.814    
        1.814       1.814       1.814       1.814       1.814       1.814       1.814       1.814       1.814       1.814    
        1.814       1.814       1.814       1.814       1.814       1.814       1.814       1.814       1.814       1.814    
        1.814       1.814       1.814       1.814       1.814       1.814       1.814       1.814       1.814       1.814    
        1.814       1.814       1.814       1.814       1.814       1.814       1.814       1.814       1.814       1.814    
        1.814       1.814       1.814       1.814       1.814       1.814       1.814       1.814       1.814       1.814    
        1.814       1.814       1.814       1.814       1.814       1.814       1.814       1.814       1.814       1.814    
        1.814       1.814       1.814       1.814       1.814       1.814       1.814       1.814       1.814       1.814    
        1.814       1.814       1.814       1.814       1.814       1.814       1.814       1.814       1.814       1.814    
        1.814       1.814       1.814       1.814       1.814       1.814       1.814       1.814       1.814       1.814    
        1.814       1.814       1.814       1.814       1.814       1.814       1.814       1.814       1.814       1.814    
        1.814       1.814       1.814       1.814       1.814       1.814       1.814       1.814       1.814       1.814    
        1.814       1.814       1.814       1.814       1.814       1.814       1.814       1.814       1.814       1.814    
        1.814       1.814       1.814       1.814       1.814       1.814       1.814       1.814       1.814       1.814    
        1.814       1.814       1.814       1.814       1.814       1.814       1.814       1.814       1.814       1.814    
        1.814       1.814       1.814       1.814       1.814       1.814       1.814       1.814       1.814       1.814    
        1.814       1.814       1.814       1.814       1.814       1.814       1.814       1.814       1.814       1.814    
        1.814       1.814       1.814       1.814       1.814       1.814    
  26   0.8640      0.8640      0.8640      0.8640      0.8640       1.814       1.814       1.814       1.814       1.814    
        3.629       3.629       3.629       1.814       1.814       1.814       1.814       1.814       1.814       1.814    
        1.814       1.814       1.814       1.814       1.814       1.814       1.814       1.814       1.814       1.814    
        1.814       1.814       1.814       1.814       1.814       1.814       1.814       1.814       1.814       1.814    
        1.814       1.814       1.814       1.814       1.814       1.814       1.814       1.814       1.814       1.814    
        1.814       1.814       1.814       1.814       1.814       1.814       1.814       1.814       1.814       1.814    
        1.814       1.814       1.814       1.814       1.814       1.814       1.814       1.814       1.814       1.814    
        1.814       1.814       1.814       1.814       1.814       1.814       1.814       1.814       1.814       1.814    
        1.814       1.814       1.814       1.814       1.814       1.814       1.814       1.814       1.814       1.814    
        1.814       1.814       1.814       1.814       1.814       1.814       1.814       1.814       1.814       1.814    
        1.814       1.814       1.814       1.814       1.814       1.814       1.814       1.814       1.814       1.814    
        1.814       1.814       1.814       1.814       1.814       1.814       1.814       1.814       1.814       1.814    
        1.814       1.814       1.814       1.814       1.814       1.814       1.814       1.814       1.814       1.814    
        1.814       1.814       1.814       1.814       1.814       1.814       1.814       1.814       1.814       1.814    
        1.814       1.814       1.814       1.814       1.814       1.814       1.814       1.814       1.814       1.814    
        1.814       1.814       1.814       1.814       1.814       1.814       1.814       1.814       1.814       1.814    
        1.814       1.814       1.814       1.814       1.814       1.814       1.814       1.814       1.814       1.814    
        1.814       1.814       1.814       1.814       1.814       1.814       1.814       1.814       1.814       1.814    
        1.814       1.814       1.814       1.814       1.814       1.814    
  27   0.8640      0.8640      0.8640      0.8640      0.8640       1.814       1.814       1.814       1.814       1.814    
        3.629       3.629       3.629       1.814       1.814       1.814       1.814       1.814       1.814       1.814    
        1.814       1.814       1.814       1.814       1.814       1.814       1.814       1.814       1.814       1.814    
        1.814       1.814       1.814       1.814       1.814       1.814       1.814       1.814       1.814       1.814    
        1.814       1.814       1.814       1.814       1.814       1.814       1.814       1.814       1.814       1.814    
        1.814       1.814       1.814       1.814       1.814       1.814       1.814       1.814       1.814       1.814    
        1.814       1.814       1.814       1.814       1.814       1.814       1.814       1.814       1.814       1.814    
        1.814       1.814       1.814       1.814       1.814       1.814       1.814       1.814       1.814       1.814    
        1.814       1.814       1.814       1.814       1.814       1.814       1.814       1.814       1.814       1.814    
        1.814       1.814       1.814       1.814       1.814       1.814       1.814       1.814       1.814       1.814    
        1.814       1.814       1.814       1.814       1.814       1.814       1.814       1.814       1.814       1.814    
        1.814       1.814       1.814       1.814       1.814       1.814       1.814       1.814       1.814       1.814    
        1.814       1.814       1.814       1.814       1.814       1.814       1.814       1.814       1.814       1.814    
        1.814       1.814       1.814       1.814       1.814       1.814       1.814       1.814       1.814       1.814    
        1.814       1.814       1.814       1.814       1.814       1.814       1.814       1.814       1.814       1.814    
        1.814       1.814       1.814       1.814       1.814       1.814       1.814       1.814       1.814       1.814    
        1.814       1.814       1.814       1.814       1.814       1.814       1.814       1.814       1.814       1.814    
        1.814       1.814       1.814       1.814       1.814       1.814       1.814       1.814       1.814       1.814    
        1.814       1.814       1.814       1.814       1.814       1.814    
  28   0.8640      0.8640      0.8640      0.8640      0.8640       1.814       1.814       1.814       1.814       1.814    
        3.629       3.629       3.629       1.814       1.814       1.814       1.814       1.814       1.814       1.814    
        1.814       1.814       1.814       1.814       1.814       1.814       1.814       1.814       1.814       1.814    
        1.814       1.814       1.814       1.814       1.814       1.814       1.814       1.814       1.814       1.814    
        1.814       1.814       1.814       1.814       1.814       1.814       1.814       1.814       1.814       1.814    
        1.814       1.814       1.814       1.814       1.814       1.814       1.814       1.814       1.814       1.814    
        1.814       1.814       1.814       1.814       1.814       1.814       1.814       1.814       1.814       1.814    
        1.814       1.814       1.814       1.814       1.814       1.814       1.814       1.814       1.814       1.814    
        1.814       1.814       1.814       1.814       1.814       1.814       1.814       1.814       1.814       1.814    
        1.814       1.814       1.814       1.814       1.814       1.814       1.814       1.814       1.814       1.814    
        1.814       1.814       1.814       1.814       1.814       1.814       1.814       1.814       1.814       1.814    
        1.814       1.814       1.814       1.814       1.814       1.814       1.814       1.814       1.814       1.814    
        1.814       1.814       1.814       1.814       1.814       1.814       1.814       1.814       1.814       1.814    
        1.814       1.814       1.814       1.814       1.814       1.814       1.814       1.814       1.814       1.814    
        1.814       1.814       1.814       1.814       1.814       1.814       1.814       1.814       1.814       1.814    
        1.814       1.814       1.814       1.814       1.814       1.814       1.814       1.814       1.814       1.814    
        1.814       1.814       1.814       1.814       1.814       1.814       1.814       1.814       1.814       1.814    
        1.814       1.814       1.814       1.814       1.814       1.814       1.814       1.814       1.814       1.814    
        1.814       1.814       1.814       1.814       1.814       1.814    
  29   0.8640      0.8640      0.8640      0.8640      0.8640       1.814       1.814       1.814       1.814       1.814    
        3.629       3.629       3.629       1.814       1.814       1.814       1.814       1.814       1.814       1.814    
        1.814       1.814       1.814       1.814       1.814       1.814       1.814       1.814       1.814       1.814    
        1.814       1.814       1.814       1.814       1.814       1.814       1.814       1.814       1.814       1.814    
        1.814       1.814       1.814       1.814       1.814       1.814       1.814       1.814       1.814       1.814    
        1.814       1.814       1.814       1.814       1.814       1.814       1.814       1.814       1.814       1.814    
        1.814       1.814       1.814       1.814       1.814       1.814       1.814       1.814       1.814       1.814    
        1.814       1.814       1.814       1.814       1.814       1.814       1.814       1.814       1.814       1.814    
        1.814       1.814       1.814       1.814       1.814       1.814       1.814       1.814       1.814       1.814    
        1.814       1.814       1.814       1.814       1.814       1.814       1.814       1.814       1.814       1.814    
        1.814       1.814       1.814       1.814       1.814       1.814       1.814       1.814       1.814       1.814    
        1.814       1.814       1.814       1.814       1.814       1.814       1.814       1.814       1.814       1.814    
        1.814       1.814       1.814       1.814       1.814       1.814       1.814       1.814       1.814       1.814    
        1.814       1.814       1.814       1.814       1.814       1.814       1.814       1.814       1.814       1.814    
        1.814       1.814       1.814       1.814       1.814       1.814       1.814       1.814       1.814       1.814    
        1.814       1.814       1.814       1.814       1.814       1.814       1.814       1.814       1.814       1.814    
        1.814       1.814       1.814       1.814       1.814       1.814       1.814       1.814       1.814       1.814    
        1.814       1.814       1.814       1.814       1.814       1.814       1.814       1.814       1.814       1.814    
        1.814       1.814       1.814       1.814       1.814       1.814    
  30   0.8640      0.8640      0.8640      0.8640      0.8640       1.814       1.814       1.814       1.814       1.814    
        3.629       3.629       3.629       1.814       1.814       1.814       1.814       1.814       1.814       1.814    
        1.814       1.814       1.814       1.814       1.814       1.814       1.814       1.814       1.814       1.814    
        1.814       1.814       1.814       1.814       1.814       1.814       1.814       1.814       1.814       1.814    
        1.814       1.814       1.814       1.814       1.814       1.814       1.814       1.814       1.814       1.814    
        1.814       1.814       1.814       1.814       1.814       1.814       1.814       1.814       1.814       1.814    
        1.814       1.814       1.814       1.814       1.814       1.814       1.814       1.814       1.814       1.814    
        1.814       1.814       1.814       1.814       1.814       1.814       1.814       1.814       1.814       1.814    
        1.814       1.814       1.814       1.814       1.814       1.814       1.814       1.814       1.814       1.814    
        1.814       1.814       1.814       1.814       1.814       1.814       1.814       1.814       1.814       1.814    
        1.814       1.814       1.814       1.814       1.814       1.814       1.814       1.814       1.814       1.814    
        1.814       1.814       1.814       1.814       1.814       1.814       1.814       1.814       1.814       1.814    
        1.814       1.814       1.814       1.814       1.814       1.814       1.814       1.814       1.814       1.814    
        1.814       1.814       1.814       1.814       1.814       1.814       1.814       1.814       1.814       1.814    
        1.814       1.814       1.814       1.814       1.814       1.814       1.814       1.814       1.814       1.814    
        1.814       1.814       1.814       1.814       1.814       1.814       1.814       1.814       1.814       1.814    
        1.814       1.814       1.814       1.814       1.814       1.814       1.814       1.814       1.814       1.814    
        1.814       1.814       1.814       1.814       1.814       1.814       1.814       1.814       1.814       1.814    
        1.814       1.814       1.814       1.814       1.814       1.814    
  31   0.8640      0.8640      0.8640      0.8640      0.8640       1.814       1.814       1.814       1.814       1.814    
        3.629       3.629       3.629       1.814       1.814       1.814       1.814       1.814       1.814       1.814    
        1.814       1.814       1.814       1.814       1.814       1.814       1.814       1.814       1.814       1.814    
        1.814       1.814       1.814       1.814       1.814       1.814       1.814       1.814       1.814       1.814    
        1.814       1.814       1.814       1.814       1.814       1.814       1.814       1.814       1.814       1.814    
        1.814       1.814       1.814       1.814       1.814       1.814       1.814       1.814       1.814       1.814    
        1.814       1.814       1.814       1.814       1.814       1.814       1.814       1.814       1.814       1.814    
        1.814       1.814       1.814       1.814       1.814       1.814       1.814       1.814       1.814       1.814    
        1.814       1.814       1.814       1.814       1.814       1.814       1.814       1.814       1.814       1.814    
        1.814       1.814       1.814       1.814       1.814       1.814       1.814       1.814       1.814       1.814    
        1.814       1.814       1.814       1.814       1.814       1.814       1.814       1.814       1.814       1.814    
        1.814       1.814       1.814       1.814       1.814       1.814       1.814       1.814       1.814       1.814    
        1.814       1.814       1.814       1.814       1.814       1.814       1.814       1.814       1.814       1.814    
        1.814       1.814       1.814       1.814       1.814       1.814       1.814       1.814       1.814       1.814    
        1.814       1.814       1.814       1.814       1.814       1.814       1.814       1.814       1.814       1.814    
        1.814       1.814       1.814       1.814       1.814       1.814       1.814       1.814       1.814       1.814    
        1.814       1.814       1.814       1.814       1.814       1.814       1.814       1.814       1.814       1.814    
        1.814       1.814       1.814       1.814       1.814       1.814       1.814       1.814       1.814       1.814    
        1.814       1.814       1.814       1.814       1.814       1.814    
  32   0.8640      0.8640      0.8640      0.8640      0.8640       1.814       1.814       1.814       1.814       1.814    
        3.629       3.629       3.629       3.629       1.814       1.814       1.814       1.814       1.814       1.814    
        1.814       1.814       1.814       1.814       1.814       1.814       1.814       1.814       1.814       1.814    
        1.814       1.814       1.814       1.814       1.814       1.814       1.814       1.814       1.814       1.814    
        1.814       1.814       1.814       1.814       1.814       1.814       1.814       1.814       1.814       1.814    
        1.814       1.814       1.814       1.814       1.814       1.814       1.814       1.814       1.814       1.814    
        1.814       1.814       1.814       1.814       1.814       1.814       1.814       1.814       1.814       1.814    
        1.814       1.814       1.814       1.814       1.814       1.814       1.814       1.814       1.814       1.814    
        1.814       1.814       1.814       1.814       1.814       1.814       1.814       1.814       1.814       1.814    
        1.814       1.814       1.814       1.814       1.814       1.814       1.814       1.814       1.814       1.814    
        1.814       1.814       1.814       1.814       1.814       1.814       1.814       1.814       1.814       1.814    
        1.814       1.814       1.814       1.814       1.814       1.814       1.814       1.814       1.814       1.814    
        1.814       1.814       1.814       1.814       1.814       1.814       1.814       1.814       1.814       1.814    
        1.814       1.814       1.814       1.814       1.814       1.814       1.814       1.814       1.814       1.814    
        1.814       1.814       1.814       1.814       1.814       1.814       1.814       1.814       1.814       1.814    
        1.814       1.814       1.814       1.814       1.814       1.814       1.814       1.814       1.814       1.814    
        1.814       1.814       1.814       1.814       1.814       1.814       1.814       1.814       1.814       1.814    
        1.814       1.814       1.814       1.814       1.814       1.814       1.814       1.814       1.814       1.814    
        1.814       1.814       1.814       1.814       1.814       1.814    
  33   0.8640      0.8640      0.8640      0.8640      0.8640       1.814       1.814       1.814       1.814       1.814    
        3.629       3.629       3.629       3.629       1.814       1.814       1.814       1.814       1.814       1.814    
        1.814       1.814       1.814       1.814       1.814       1.814       1.814       1.814       1.814       1.814    
        1.814       1.814       1.814       1.814       1.814       1.814       1.814       1.814       1.814       1.814    
        1.814       1.814       1.814       1.814       1.814       1.814       1.814       1.814       1.814       1.814    
        1.814       1.814       1.814       1.814       1.814       1.814       1.814       1.814       1.814       1.814    
        1.814       1.814       1.814       1.814       1.814       1.814       1.814       1.814       1.814       1.814    
        1.814       1.814       1.814       1.814       1.814       1.814       1.814       1.814       1.814       1.814    
        1.814       1.814       1.814       1.814       1.814       1.814       1.814       1.814       1.814       1.814    
        1.814       1.814       1.814       1.814       1.814       1.814       1.814       1.814       1.814       1.814    
        1.814       1.814       1.814       1.814       1.814       1.814       1.814       1.814       1.814       1.814    
        1.814       1.814       1.814       1.814       1.814       1.814       1.814       1.814       1.814       1.814    
        1.814       1.814       1.814       1.814       1.814       1.814       1.814       1.814       1.814       1.814    
        1.814       1.814       1.814       1.814       1.814       1.814       1.814       1.814       1.814       1.814    
        1.814       1.814       1.814       1.814       1.814       1.814       1.814       1.814       1.814       1.814    
        1.814       1.814       1.814       1.814       1.814       1.814       1.814       1.814       1.814       1.814    
        1.814       1.814       1.814       1.814       1.814       1.814       1.814       1.814       1.814       1.814    
        1.814       1.814       1.814       1.814       1.814       1.814       1.814       1.814       1.814       1.814    
        1.814       1.814       1.814       1.814       1.814       1.814    
  34   0.8640      0.8640      0.8640      0.8640      0.8640       1.814       1.814       1.814       1.814       1.814    
        3.629       3.629       3.629       3.629       1.814       1.814       1.814       1.814       1.814       1.814    
        1.814       1.814       1.814       1.814       1.814       1.814       1.814       1.814       1.814       1.814    
        1.814       1.814       1.814       1.814       1.814       1.814       1.814       1.814       1.814       1.814    
        1.814       1.814       1.814       1.814       1.814       1.814       1.814       1.814       1.814       1.814    
        1.814       1.814       1.814       1.814       1.814       1.814       1.814       1.814       1.814       1.814    
        1.814       1.814       1.814       1.814       1.814       1.814       1.814       1.814       1.814       1.814    
        1.814       1.814       1.814       1.814       1.814       1.814       1.814       1.814       1.814       1.814    
        1.814       1.814       1.814       1.814       1.814       1.814       1.814       1.814       1.814       1.814    
        1.814       1.814       1.814       1.814       1.814       1.814       1.814       1.814       1.814       1.814    
        1.814       1.814       1.814       1.814       1.814       1.814       1.814       1.814       1.814       1.814    
        1.814       1.814       1.814       1.814       1.814       1.814       1.814       1.814       1.814       1.814    
        1.814       1.814       1.814       1.814       1.814       1.814       1.814       1.814       1.814       1.814    
        1.814       1.814       1.814       1.814       1.814       1.814       1.814       1.814       1.814       1.814    
        1.814       1.814       1.814       1.814       1.814       1.814       1.814       1.814       1.814       1.814    
        1.814       1.814       1.814       1.814       1.814       1.814       1.814       1.814       1.814       1.814    
        1.814       1.814       1.814       1.814       1.814       1.814       1.814       1.814       1.814       1.814    
        1.814       1.814       1.814       1.814       1.814       1.814       1.814       1.814       1.814       1.814    
        1.814       1.814       1.814       1.814       1.814       1.814    
  35   0.8640      0.8640      0.8640      0.8640      0.8640      0.8640       1.814       1.814       1.814       1.814    
        3.629       3.629       3.629       3.629       1.814       1.814       1.814       1.814       1.814       1.814    
        1.814       1.814       1.814       1.814       1.814       1.814       1.814       1.814       1.814       1.814    
        1.814       1.814       1.814       1.814       1.814       1.814       1.814       1.814       1.814       1.814    
        1.814       1.814       1.814       1.814       1.814       1.814       1.814       1.814       1.814       1.814    
        1.814       1.814       1.814       1.814       1.814       1.814       1.814       1.814       1.814       1.814    
        1.814       1.814       1.814       1.814       1.814       1.814       1.814       1.814       1.814       1.814    
        1.814       1.814       1.814       1.814       1.814       1.814       1.814       1.814       1.814       1.814    
        1.814       1.814       1.814       1.814       1.814       1.814       1.814       1.814       1.814       1.814    
        1.814       1.814       1.814       1.814       1.814       1.814       1.814       1.814       1.814       1.814    
        1.814       1.814       1.814       1.814       1.814       1.814       1.814       1.814       1.814       1.814    
        1.814       1.814       1.814       1.814       1.814       1.814       1.814       1.814       1.814       1.814    
        1.814       1.814       1.814       1.814       1.814       1.814       1.814       1.814       1.814       1.814    
        1.814       1.814       1.814       1.814       1.814       1.814       1.814       1.814       1.814       1.814    
        1.814       1.814       1.814       1.814       1.814       1.814       1.814       1.814       1.814       1.814    
        1.814       1.814       1.814       1.814       1.814       1.814       1.814       1.814       1.814       1.814    
        1.814       1.814       1.814       1.814       1.814       1.814       1.814       1.814       1.814       1.814    
        1.814       1.814       1.814       1.814       1.814       1.814       1.814       1.814       1.814       1.814    
        1.814       1.814       1.814       1.814       1.814       1.814    
  36   0.8640      0.8640      0.8640      0.8640      0.8640      0.8640       1.814       1.814       1.814       1.814    
        3.629       3.629       3.629       3.629       1.814       1.814       1.814       1.814       1.814       1.814    
        1.814       1.814       1.814       1.814       1.814       1.814       1.814       1.814       1.814       1.814    
        1.814       1.814       1.814       1.814       1.814       1.814       1.814       1.814       1.814       1.814    
        1.814       1.814       1.814       1.814       1.814       1.814       1.814       1.814       1.814       1.814    
        1.814       1.814       1.814       1.814       1.814       1.814       1.814       1.814       1.814       1.814    
        1.814       1.814       1.814       1.814       1.814       1.814       1.814       1.814       1.814       1.814    
        1.814       1.814       1.814       1.814       1.814       1.814       1.814       1.814       1.814       1.814    
        1.814       1.814       1.814       1.814       1.814       1.814       1.814       1.814       1.814       1.814    
        1.814       1.814       1.814       1.814       1.814       1.814       1.814       1.814       1.814       1.814    
        1.814       1.814       1.814       1.814       1.814       1.814       1.814       1.814       1.814       1.814    
        1.814       1.814       1.814       1.814       1.814       1.814       1.814       1.814       1.814       1.814    
        1.814       1.814       1.814       1.814       1.814       1.814       1.814       1.814       1.814       1.814    
        1.814       1.814       1.814       1.814       1.814       1.814       1.814       1.814       1.814       1.814    
        1.814       1.814       1.814       1.814       1.814       1.814       1.814       1.814       1.814       1.814    
        1.814       1.814       1.814       1.814       1.814       1.814       1.814       1.814       1.814       1.814    
        1.814       1.814       1.814       1.814       1.814       1.814       1.814       1.814       1.814       1.814    
        1.814       1.814       1.814       1.814       1.814       1.814       1.814       1.814       1.814       1.814    
        1.814       1.814       1.814       1.814       1.814       1.814    
  37   0.8640      0.8640      0.8640      0.8640      0.8640      0.8640       1.814       1.814       1.814       1.814    
        3.629       3.629       3.629       3.629       1.814       1.814       1.814       1.814       1.814       1.814    
        1.814       1.814       1.814       1.814       1.814       1.814       1.814       1.814       1.814       1.814    
        1.814       1.814       1.814       1.814       1.814       1.814       1.814       1.814       1.814       1.814    
        1.814       1.814       1.814       1.814       1.814       1.814       1.814       1.814       1.814       1.814    
        1.814       1.814       1.814       1.814       1.814       1.814       1.814       1.814       1.814       1.814    
        1.814       1.814       1.814       1.814       1.814       1.814       1.814       1.814       1.814       1.814    
        1.814       1.814       1.814       1.814       1.814       1.814       1.814       1.814       1.814       1.814    
        1.814       1.814       1.814       1.814       1.814       1.814       1.814       1.814       1.814       1.814    
        1.814       1.814       1.814       1.814       1.814       1.814       1.814       1.814       1.814       1.814    
        1.814       1.814       1.814       1.814       1.814       1.814       1.814       1.814       1.814       1.814    
        1.814       1.814       1.814       1.814       1.814       1.814       1.814       1.814       1.814       1.814    
        1.814       1.814       1.814       1.814       1.814       1.814       1.814       1.814       1.814       1.814    
        1.814       1.814       1.814       1.814       1.814       1.814       1.814       1.814       1.814       1.814    
        1.814       1.814       1.814       1.814       1.814       1.814       1.814       1.814       1.814       1.814    
        1.814       1.814       1.814       1.814       1.814       1.814       1.814       1.814       1.814       1.814    
        1.814       1.814       1.814       1.814       1.814       1.814       1.814       1.814       1.814       1.814    
        1.814       1.814       1.814       1.814       1.814       1.814       1.814       1.814       1.814       1.814    
        1.814       1.814       1.814       1.814       1.814       1.814    
  38   0.8640      0.8640      0.8640      0.8640      0.8640      0.8640       1.814       1.814       1.814       1.814    
        3.629       3.629       3.629       3.629       3.629       1.814       1.814       1.814       1.814       1.814    
        1.814       1.814       1.814       1.814       1.814       1.814       1.814       1.814       1.814       1.814    
        1.814       1.814       1.814       1.814       1.814       1.814       1.814       1.814       1.814       1.814    
        1.814       1.814       1.814       1.814       1.814       1.814       1.814       1.814       1.814       1.814    
        1.814       1.814       1.814       1.814       1.814       1.814       1.814       1.814       1.814       1.814    
        1.814       1.814       1.814       1.814       1.814       1.814       1.814       1.814       1.814       1.814    
        1.814       1.814       1.814       1.814       1.814       1.814       1.814       1.814       1.814       1.814    
        1.814       1.814       1.814       1.814       1.814       1.814       1.814       1.814       1.814       1.814    
        1.814       1.814       1.814       1.814       1.814       1.814       1.814       1.814       1.814       1.814    
        1.814       1.814       1.814       1.814       1.814       1.814       1.814       1.814       1.814       1.814    
        1.814       1.814       1.814       1.814       1.814       1.814       1.814       1.814       1.814       1.814    
        1.814       1.814       1.814       1.814       1.814       1.814       1.814       1.814       1.814       1.814    
        1.814       1.814       1.814       1.814       1.814       1.814       1.814       1.814       1.814       1.814    
        1.814       1.814       1.814       1.814       1.814       1.814       1.814       1.814       1.814       1.814    
        1.814       1.814       1.814       1.814       1.814       1.814       1.814       1.814       1.814       1.814    
        1.814       1.814       1.814       1.814       1.814       1.814       1.814       1.814       1.814       1.814    
        1.814       1.814       1.814       1.814       1.814       1.814       1.814       1.814       1.814       1.814    
        1.814       1.814       1.814       1.814       1.814       1.814    
  39   0.8640      0.8640      0.8640      0.8640      0.8640      0.8640      0.8640       1.814       1.814       1.814    
        3.629       3.629       3.629       3.629       3.629       1.814       1.814       1.814       1.814       1.814    
        1.814       1.814       1.814       1.814       1.814       1.814       1.814       1.814       1.814       1.814    
        1.814       1.814       1.814       1.814       1.814       1.814       1.814       1.814       1.814       1.814    
        1.814       1.814       1.814       1.814       1.814       1.814       1.814       1.814       1.814       1.814    
        1.814       1.814       1.814       1.814       1.814       1.814       1.814       1.814       1.814       1.814    
        1.814       1.814       1.814       1.814       1.814       1.814       1.814       1.814       1.814       1.814    
        1.814       1.814       1.814       1.814       1.814       1.814       1.814       1.814       1.814       1.814    
        1.814       1.814       1.814       1.814       1.814       1.814       1.814       1.814       1.814       1.814    
        1.814       1.814       1.814       1.814       1.814       1.814       1.814       1.814       1.814       1.814    
        1.814       1.814       1.814       1.814       1.814       1.814       1.814       1.814       1.814       1.814    
        1.814       1.814       1.814       1.814       1.814       1.814       1.814       1.814       1.814       1.814    
        1.814       1.814       1.814       1.814       1.814       1.814       1.814       1.814       1.814       1.814    
        1.814       1.814       1.814       1.814       1.814       1.814       1.814       1.814       1.814       1.814    
        1.814       1.814       1.814       1.814       1.814       1.814       1.814       1.814       1.814       1.814    
        1.814       1.814       1.814       1.814       1.814       1.814       1.814       1.814       1.814       1.814    
        1.814       1.814       1.814       1.814       1.814       1.814       1.814       1.814       1.814       1.814    
        1.814       1.814       1.814       1.814       1.814       1.814       1.814       1.814       1.814       1.814    
        1.814       1.814       1.814       1.814       1.814       1.814    
  40   0.8640      0.8640      0.8640      0.8640      0.8640      0.8640      0.8640       1.814       1.814       1.814    
        1.814       3.629       3.629       3.629       3.629       1.814       1.814       1.814       1.814       1.814    
        1.814       1.814       1.814       1.814       1.814       1.814       1.814       1.814       1.814       1.814    
        1.814       1.814       1.814       1.814       1.814       1.814       1.814       1.814       1.814       1.814    
        1.814       1.814       1.814       1.814       1.814       1.814       1.814       1.814       1.814       1.814    
        1.814       1.814       1.814       1.814       1.814       1.814       1.814       1.814       1.814       1.814    
        1.814       1.814       1.814       1.814       1.814       1.814       1.814       1.814       1.814       1.814    
        1.814       1.814       1.814       1.814       1.814       1.814       1.814       1.814       1.814       1.814    
        1.814       1.814       1.814       1.814       1.814       1.814       1.814       1.814       1.814       1.814    
        1.814       1.814       1.814       1.814       1.814       1.814       1.814       1.814       1.814       1.814    
        1.814       1.814       1.814       1.814       1.814       1.814       1.814       1.814       1.814       1.814    
        1.814       1.814       1.814       1.814       1.814       1.814       1.814       1.814       1.814       1.814    
        1.814       1.814       1.814       1.814       1.814       1.814       1.814       1.814       1.814       1.814    
        1.814       1.814       1.814       1.814       1.814       1.814       1.814       1.814       1.814       1.814    
        1.814       1.814       1.814       1.814       1.814       1.814       1.814       1.814       1.814       1.814    
        1.814       1.814       1.814       1.814       1.814       1.814       1.814       1.814       1.814       1.814    
        1.814       1.814       1.814       1.814       1.814       1.814       1.814       1.814       1.814       1.814    
        1.814       1.814       1.814       1.814       1.814       1.814       1.814       1.814       1.814       1.814    
        1.814       1.814       1.814       1.814       1.814       1.814    
  41   0.8640      0.8640      0.8640      0.8640      0.8640      0.8640      0.8640       1.814       1.814       1.814    
        1.814       3.629       3.629       3.629       3.629       1.814       1.814       1.814       1.814       1.814    
        1.814       1.814       1.814       1.814       1.814       1.814       1.814       1.814       1.814       1.814    
        1.814       1.814       1.814       1.814       1.814       1.814       1.814       1.814       1.814       1.814    
        1.814       1.814       1.814       1.814       1.814       1.814       1.814       1.814       1.814       1.814    
        1.814       1.814       1.814       1.814       1.814       1.814       1.814       1.814       1.814       1.814    
        1.814       1.814       1.814       1.814       1.814       1.814       1.814       1.814       1.814       1.814    
        1.814       1.814       1.814       1.814       1.814       1.814       1.814       1.814       1.814       1.814    
        1.814       1.814       1.814       1.814       1.814       1.814       1.814       1.814       1.814       1.814    
        1.814       1.814       1.814       1.814       1.814       1.814       1.814       1.814       1.814       1.814    
        1.814       1.814       1.814       1.814       1.814       1.814       1.814       1.814       1.814       1.814    
        1.814       1.814       1.814       1.814       1.814       1.814       1.814       1.814       1.814       1.814    
        1.814       1.814       1.814       1.814       1.814       1.814       1.814       1.814       1.814       1.814    
        1.814       1.814       1.814       1.814       1.814       1.814       1.814       1.814       1.814       1.814    
        1.814       1.814       1.814       1.814       1.814       1.814       1.814       1.814       1.814       1.814    
        1.814       1.814       1.814       1.814       1.814       1.814       1.814       1.814       1.814       1.814    
        1.814       1.814       1.814       1.814       1.814       1.814       1.814       1.814       1.814       1.814    
        1.814       1.814       1.814       1.814       1.814       1.814       1.814       1.814       1.814       1.814    
        1.814       1.814       1.814       1.814       1.814       1.814    
  42   0.8640      0.8640      0.8640      0.8640      0.8640      0.8640      0.8640       1.814       1.814       1.814    
        1.814       3.629       3.629       3.629       3.629       3.629       1.814       1.814       1.814       1.814    
        1.814       1.814       1.814       1.814       1.814       1.814       1.814       1.814       1.814       1.814    
        1.814       1.814       1.814       1.814       1.814       1.814       1.814       1.814       1.814       1.814    
        1.814       1.814       1.814       1.814       1.814       1.814       1.814       1.814       1.814       1.814    
        1.814       1.814       1.814       1.814       1.814       1.814       1.814       1.814       1.814       1.814    
        1.814       1.814       1.814       1.814       1.814       1.814       1.814       1.814       1.814       1.814    
        1.814       1.814       1.814       1.814       1.814       1.814       1.814       1.814       1.814       1.814    
        1.814       1.814       1.814       1.814       1.814       1.814       1.814       1.814       1.814       1.814    
        1.814       1.814       1.814       1.814       1.814       1.814       1.814       1.814       1.814       1.814    
        1.814       1.814       1.814       1.814       1.814       1.814       1.814       1.814       1.814       1.814    
        1.814       1.814       1.814       1.814       1.814       1.814       1.814       1.814       1.814       1.814    
        1.814       1.814       1.814       1.814       1.814       1.814       1.814       1.814       1.814       1.814    
        1.814       1.814       1.814       1.814       1.814       1.814       1.814       1.814       1.814       1.814    
        1.814       1.814       1.814       1.814       1.814       1.814       1.814       1.814       1.814       1.814    
        1.814       1.814       1.814       1.814       1.814       1.814       1.814       1.814       1.814       1.814    
        1.814       1.814       1.814       1.814       1.814       1.814       1.814       1.814       1.814       1.814    
        1.814       1.814       1.814       1.814       1.814       1.814       1.814       1.814       1.814       1.814    
        1.814       1.814       1.814       1.814       1.814       1.814    
  43   0.8640      0.8640      0.8640      0.8640      0.8640      0.8640      0.8640      0.8640       1.814       1.814    
        1.814       1.814       3.629       3.629       3.629       3.629       1.814       1.814       1.814       1.814    
        1.814       1.814       1.814       1.814       1.814       1.814       1.814       1.814       1.814       1.814    
        1.814       1.814       1.814       1.814       1.814       1.814       1.814       1.814       1.814       1.814    
        1.814       1.814       1.814       1.814       1.814       1.814       1.814       1.814       1.814       1.814    
        1.814       1.814       1.814       1.814       1.814       1.814       1.814       1.814       1.814       1.814    
        1.814       1.814       1.814       1.814       1.814       1.814       1.814       1.814       1.814       1.814    
        1.814       1.814       1.814       1.814       1.814       1.814       1.814       1.814       1.814       1.814    
        1.814       1.814       1.814       1.814       1.814       1.814       1.814       1.814       1.814       1.814    
        1.814       1.814       1.814       1.814       1.814       1.814       1.814       1.814       1.814       1.814    
        1.814       1.814       1.814       1.814       1.814       1.814       1.814       1.814       1.814       1.814    
        1.814       1.814       1.814       1.814       1.814       1.814       1.814       1.814       1.814       1.814    
        1.814       1.814       1.814       1.814       1.814       1.814       1.814       1.814       1.814       1.814    
        1.814       1.814       1.814       1.814       1.814       1.814       1.814       1.814       1.814       1.814    
        1.814       1.814       1.814       1.814       1.814       1.814       1.814       1.814       1.814       1.814    
        1.814       1.814       1.814       1.814       1.814       1.814       1.814       1.814       1.814       1.814    
        1.814       1.814       1.814       1.814       1.814       1.814       1.814       1.814       1.814       1.814    
        1.814       1.814       1.814       1.814       1.814       1.814       1.814       1.814       1.814       1.814    
        1.814       1.814       1.814       1.814       1.814       1.814    
  44   0.8640      0.8640      0.8640      0.8640      0.8640      0.8640      0.8640      0.8640       1.814       1.814    
        1.814       1.814       3.629       3.629       3.629       3.629       1.814       1.814       1.814       1.814    
        1.814       1.814       1.814       1.814       1.814       1.814       1.814       1.814       1.814       1.814    
        1.814       1.814       1.814       1.814       1.814       1.814       1.814       1.814       1.814       1.814    
        1.814       1.814       1.814       1.814       1.814       1.814       1.814       1.814       1.814       1.814    
        1.814       1.814       1.814       1.814       1.814       1.814       1.814       1.814       1.814       1.814    
        1.814       1.814       1.814       1.814       1.814       1.814       1.814       1.814       1.814       1.814    
        1.814       1.814       1.814       1.814       1.814       1.814       1.814       1.814       1.814       1.814    
        1.814       1.814       1.814       1.814       1.814       1.814       1.814       1.814       1.814       1.814    
        1.814       1.814       1.814       1.814       1.814       1.814       1.814       1.814       1.814       1.814    
        1.814       1.814       1.814       1.814       1.814       1.814       1.814       1.814       1.814       1.814    
        1.814       1.814       1.814       1.814       1.814       1.814       1.814       1.814       1.814       1.814    
        1.814       1.814       1.814       1.814       1.814       1.814       1.814       1.814       1.814       1.814    
        1.814       1.814       1.814       1.814       1.814       1.814       1.814       1.814       1.814       1.814    
        1.814       1.814       1.814       1.814       1.814       1.814       1.814       1.814       1.814       1.814    
        1.814       1.814       1.814       1.814       1.814       1.814       1.814       1.814       1.814       1.814    
        1.814       1.814       1.814       1.814       1.814       1.814       1.814       1.814       1.814       1.814    
        1.814       1.814       1.814       1.814       1.814       1.814       1.814       1.814       1.814       1.814    
        1.814       1.814       1.814       1.814       1.814       1.814    
  45   0.8640      0.8640      0.8640      0.8640      0.8640      0.8640      0.8640      0.8640       1.814       1.814    
        1.814       1.814       3.629       3.629       3.629       3.629       3.629       1.814       1.814       1.814    
        1.814       1.814       1.814       1.814       1.814       1.814       1.814       1.814       1.814       1.814    
        1.814       1.814       1.814       1.814       1.814       1.814       1.814       1.814       1.814       1.814    
        1.814       1.814       1.814       1.814       1.814       1.814       1.814       1.814       1.814       1.814    
        1.814       1.814       1.814       1.814       1.814       1.814       1.814       1.814       1.814       1.814    
        1.814       1.814       1.814       1.814       1.814       1.814       1.814       1.814       1.814       1.814    
        1.814       1.814       1.814       1.814       1.814       1.814       1.814       1.814       1.814       1.814    
        1.814       1.814       1.814       1.814       1.814       1.814       1.814       1.814       1.814       1.814    
        1.814       1.814       1.814       1.814       1.814       1.814       1.814       1.814       1.814       1.814    
        1.814       1.814       1.814       1.814       1.814       1.814       1.814       1.814       1.814       1.814    
        1.814       1.814       1.814       1.814       1.814       1.814       1.814       1.814       1.814       1.814    
        1.814       1.814       1.814       1.814       1.814       1.814       1.814       1.814       1.814       1.814    
        1.814       1.814       1.814       1.814       1.814       1.814       1.814       1.814       1.814       1.814    
        1.814       1.814       1.814       1.814       1.814       1.814       1.814       1.814       1.814       1.814    
        1.814       1.814       1.814       1.814       1.814       1.814       1.814       1.814       1.814       1.814    
        1.814       1.814       1.814       1.814       1.814       1.814       1.814       1.814       1.814       1.814    
        1.814       1.814       1.814       1.814       1.814       1.814       1.814       1.814       1.814       1.814    
        1.814       1.814       1.814       1.814       1.814       1.814    
  46   0.8640      0.8640      0.8640      0.8640      0.8640      0.8640      0.8640      0.8640       1.814       1.814    
        1.814       1.814       3.629       3.629       3.629       3.629       3.629       1.814       1.814       1.814    
        1.814       1.814       1.814       1.814       1.814       1.814       1.814       1.814       1.814       1.814    
        1.814       1.814       1.814       1.814       1.814       1.814       1.814       1.814       1.814       1.814    
        1.814       1.814       1.814       1.814       1.814       1.814       1.814       1.814       1.814       1.814    
        1.814       1.814       1.814       1.814       1.814       1.814       1.814       1.814       1.814       1.814    
        1.814       1.814       1.814       1.814       1.814       1.814       1.814       1.814       1.814       1.814    
        1.814       1.814       1.814       1.814       1.814       1.814       1.814       1.814       1.814       1.814    
        1.814       1.814       1.814       1.814       1.814       1.814       1.814       1.814       1.814       1.814    
        1.814       1.814       1.814       1.814       1.814       1.814       1.814       1.814       1.814       1.814    
        1.814       1.814       1.814       1.814       1.814       1.814       1.814       1.814       1.814       1.814    
        1.814       1.814       1.814       1.814       1.814       1.814       1.814       1.814       1.814       1.814    
        1.814       1.814       1.814       1.814       1.814       1.814       1.814       1.814       1.814       1.814    
        1.814       1.814       1.814       1.814       1.814       1.814       1.814       1.814       1.814       1.814    
        1.814       1.814       1.814       1.814       1.814       1.814       1.814       1.814       1.814       1.814    
        1.814       1.814       1.814       1.814       1.814       1.814       1.814       1.814       1.814       1.814    
        1.814       1.814       1.814       1.814       1.814       1.814       1.814       1.814       1.814       1.814    
        1.814       1.814       1.814       1.814       1.814       1.814       1.814       1.814       1.814       1.814    
        1.814       1.814       1.814       1.814       1.814       1.814    
  47   0.8640      0.8640      0.8640      0.8640      0.8640      0.8640      0.8640      0.8640       1.814       1.814    
        1.814       1.814       3.629       3.629       3.629       3.629       3.629       3.629       1.814       1.814    
        1.814       1.814       1.814       1.814       1.814       1.814       1.814       1.814       1.814       1.814    
        1.814       1.814       1.814       1.814       1.814       1.814       1.814       1.814       1.814       1.814    
        1.814       1.814       1.814       1.814       1.814       1.814       1.814       1.814       1.814       1.814    
        1.814       1.814       1.814       1.814       1.814       1.814       1.814       1.814       1.814       1.814    
        1.814       1.814       1.814       1.814       1.814       1.814       1.814       1.814       1.814       1.814    
        1.814       1.814       1.814       1.814       1.814       1.814       1.814       1.814       1.814       1.814    
        1.814       1.814       1.814       1.814       1.814       1.814       1.814       1.814       1.814       1.814    
        1.814       1.814       1.814       1.814       1.814       1.814       1.814       1.814       1.814       1.814    
        1.814       1.814       1.814       1.814       1.814       1.814       1.814       1.814       1.814       1.814    
        1.814       1.814       1.814       1.814       1.814       1.814       1.814       1.814       1.814       1.814    
        1.814       1.814       1.814       1.814       1.814       1.814       1.814       1.814       1.814       1.814    
        1.814       1.814       1.814       1.814       1.814       1.814       1.814       1.814       1.814       1.814    
        1.814       1.814       1.814       1.814       1.814       1.814       1.814       1.814       1.814       1.814    
        1.814       1.814       1.814       1.814       1.814       1.814       1.814       1.814       1.814       1.814    
        1.814       1.814       1.814       1.814       1.814       1.814       1.814       1.814       1.814       1.814    
        1.814       1.814       1.814       1.814       1.814       1.814       1.814       1.814       1.814       1.814    
        1.814       1.814       1.814       1.814       1.814       1.814    
  48   0.8640      0.8640      0.8640      0.8640      0.8640      0.8640      0.8640      0.8640      0.8640       1.814    
        1.814       1.814       1.814       3.629       3.629       3.629       3.629       3.629       1.814       1.814    
        1.814       1.814       1.814       1.814       1.814       1.814       1.814       1.814       1.814       1.814    
        1.814       1.814       1.814       1.814       1.814       1.814       1.814       1.814       1.814       1.814    
        1.814       1.814       1.814       1.814       1.814       1.814       1.814       1.814       1.814       1.814    
        1.814       1.814       1.814       1.814       1.814       1.814       1.814       1.814       1.814       1.814    
        1.814       1.814       1.814       1.814       1.814       1.814       1.814       1.814       1.814       1.814    
        1.814       1.814       1.814       1.814       1.814       1.814       1.814       1.814       1.814       1.814    
        1.814       1.814       1.814       1.814       1.814       1.814       1.814       1.814       1.814       1.814    
        1.814       1.814       1.814       1.814       1.814       1.814       1.814       1.814       1.814       1.814    
        1.814       1.814       1.814       1.814       1.814       1.814       1.814       1.814       1.814       1.814    
        1.814       1.814       1.814       1.814       1.814       1.814       1.814       1.814       1.814       1.814    
        1.814       1.814       1.814       1.814       1.814       1.814       1.814       1.814       1.814       1.814    
        1.814       1.814       1.814       1.814       1.814       1.814       1.814       1.814       1.814       1.814    
        1.814       1.814       1.814       1.814       1.814       1.814       1.814       1.814       1.814       1.814    
        1.814       1.814       1.814       1.814       1.814       1.814       1.814       1.814       1.814       1.814    
        1.814       1.814       1.814       1.814       1.814       1.814       1.814       1.814       1.814       1.814    
        1.814       1.814       1.814       1.814       1.814       1.814       1.814       1.814       1.814       1.814    
        1.814       1.814       1.814       1.814       1.814       1.814    
  49   0.8640      0.8640      0.8640      0.8640      0.8640      0.8640      0.8640      0.8640      0.8640       1.814    
        1.814       1.814       1.814       3.629       3.629       3.629       3.629       3.629       3.629       1.814    
        1.814       1.814       1.814       1.814       1.814       1.814       1.814       1.814       1.814       1.814    
        1.814       1.814       1.814       1.814       1.814       1.814       1.814       1.814       1.814       1.814    
        1.814       1.814       1.814       1.814       1.814       1.814       1.814       1.814       1.814       1.814    
        1.814       1.814       1.814       1.814       1.814       1.814       1.814       1.814       1.814       1.814    
        1.814       1.814       1.814       1.814       1.814       1.814       1.814       1.814       1.814       1.814    
        1.814       1.814       1.814       1.814       1.814       1.814       1.814       1.814       1.814       1.814    
        1.814       1.814       1.814       1.814       1.814       1.814       1.814       1.814       1.814       1.814    
        1.814       1.814       1.814       1.814       1.814       1.814       1.814       1.814       1.814       1.814    
        1.814       1.814       1.814       1.814       1.814       1.814       1.814       1.814       1.814       1.814    
        1.814       1.814       1.814       1.814       1.814       1.814       1.814       1.814       1.814       1.814    
        1.814       1.814       1.814       1.814       1.814       1.814       1.814       1.814       1.814       1.814    
        1.814       1.814       1.814       1.814       1.814       1.814       1.814       1.814       1.814       1.814    
        1.814       1.814       1.814       1.814       1.814       1.814       1.814       1.814       1.814       1.814    
        1.814       1.814       1.814       1.814       1.814       1.814       1.814       1.814       1.814       1.814    
        1.814       1.814       1.814       1.814       1.814       1.814       1.814       1.814       1.814       1.814    
        1.814       1.814       1.814       1.814       1.814       1.814       1.814       1.814       1.814       1.814    
        1.814       1.814       1.814       1.814      0.8640      0.8640    
  50   0.8640      0.8640      0.8640      0.8640      0.8640      0.8640      0.8640      0.8640      0.8640       1.814    
        1.814       1.814       1.814       3.629       3.629       3.629       3.629       3.629       3.629       3.629    
        1.814       1.814       1.814       1.814       1.814       1.814       1.814       1.814       1.814       1.814    
        1.814       1.814       1.814       1.814       1.814       1.814       1.814       1.814       1.814       1.814    
        1.814       1.814       1.814       1.814       1.814       1.814       1.814       1.814       1.814       1.814    
        1.814       1.814       1.814       1.814       1.814       1.814       1.814       1.814       1.814       1.814    
        1.814       1.814       1.814       1.814       1.814       1.814       1.814       1.814       1.814       1.814    
        1.814       1.814       1.814       1.814       1.814       1.814       1.814       1.814       1.814       1.814    
        1.814       1.814       1.814       1.814       1.814       1.814       1.814       1.814       1.814       1.814    
        1.814       1.814       1.814       1.814       1.814       1.814       1.814       1.814       1.814       1.814    
        1.814       1.814       1.814       1.814       1.814       1.814       1.814       1.814       1.814       1.814    
        1.814       1.814       1.814       1.814       1.814       1.814       1.814       1.814       1.814       1.814    
        1.814       1.814       1.814       1.814       1.814       1.814       1.814       1.814       1.814       1.814    
        1.814       1.814       1.814       1.814       1.814       1.814       1.814       1.814       1.814       1.814    
        1.814       1.814       1.814       1.814       1.814       1.814       1.814       1.814       1.814       1.814    
        1.814       1.814       1.814       1.814       1.814       1.814       1.814       1.814       1.814       1.814    
        1.814       1.814       1.814       1.814       1.814       1.814       1.814       1.814       1.814       1.814    
        1.814       1.814       1.814       1.814       1.814       1.814       1.814       1.814       1.814       1.814    
        1.814       1.814       1.814      0.8640      0.8640      0.8640    
  51   0.8640      0.8640      0.8640      0.8640      0.8640      0.8640      0.8640      0.8640      0.8640       1.814    
        1.814       1.814       1.814       3.629       3.629       3.629       3.629       3.629       3.629       3.629    
        1.814       1.814       1.814       1.814       1.814       1.814       1.814       1.814       1.814       1.814    
        1.814       1.814       1.814       1.814       1.814       1.814       1.814       1.814       1.814       1.814    
        1.814       1.814       1.814       1.814       1.814       1.814       1.814       1.814       1.814       1.814    
        1.814       1.814       1.814       1.814       1.814       1.814       1.814       1.814       1.814       1.814    
        1.814       1.814       1.814       1.814       1.814       1.814       1.814       1.814       1.814       1.814    
        1.814       1.814       1.814       1.814       1.814       1.814       1.814       1.814       1.814       1.814    
        1.814       1.814       1.814       1.814       1.814       1.814       1.814       1.814       1.814       1.814    
        1.814       1.814       1.814       1.814       1.814       1.814       1.814       1.814       1.814       1.814    
        1.814       1.814       1.814       1.814       1.814       1.814       1.814       1.814       1.814       1.814    
        1.814       1.814       1.814       1.814       1.814       1.814       1.814       1.814       1.814       1.814    
        1.814       1.814       1.814       1.814       1.814       1.814       1.814       1.814       1.814       1.814    
        1.814       1.814       1.814       1.814       1.814       1.814       1.814       1.814       1.814       1.814    
        1.814       1.814       1.814       1.814       1.814       1.814       1.814       1.814       1.814       1.814    
        1.814       1.814       1.814       1.814       1.814       1.814       1.814       1.814       1.814       1.814    
        1.814       1.814       1.814       1.814       1.814       1.814       1.814       1.814       1.814       1.814    
        1.814       1.814       1.814       1.814       1.814       1.814       1.814       1.814       1.814       1.814    
        1.814       1.814      0.8640      0.8640      0.8640      0.8640    
  52   0.8640      0.8640      0.8640      0.8640      0.8640      0.8640      0.8640      0.8640      0.8640      0.8640    
        1.814       1.814       1.814       1.814       3.629       3.629       3.629       3.629       3.629       3.629    
        3.629       1.814       1.814       1.814       1.814       1.814       1.814       1.814       1.814       1.814    
        1.814       1.814       1.814       1.814       1.814       1.814       1.814       1.814       1.814       1.814    
        1.814       1.814       1.814       1.814       1.814       1.814       1.814       1.814       1.814       1.814    
        1.814       1.814       1.814       1.814       1.814       1.814       1.814       1.814       1.814       1.814    
        1.814       1.814       1.814       1.814       1.814       1.814       1.814       1.814       1.814       1.814    
        1.814       1.814       1.814       1.814       1.814       1.814       1.814       1.814       1.814       1.814    
        1.814       1.814       1.814       1.814       1.814       1.814       1.814       1.814       1.814       1.814    
        1.814       1.814       1.814       1.814       1.814       1.814       1.814       1.814       1.814       1.814    
        1.814       1.814       1.814       1.814       1.814       1.814       1.814       1.814       1.814       1.814    
        1.814       1.814       1.814       1.814       1.814       1.814       1.814       1.814       1.814       1.814    
        1.814       1.814       1.814       1.814       1.814       1.814       1.814       1.814       1.814       1.814    
        1.814       1.814       1.814       1.814       1.814       1.814       1.814       1.814       1.814       1.814    
        1.814       1.814       1.814       1.814       1.814       1.814       1.814       1.814       1.814       1.814    
        1.814       1.814       1.814       1.814       1.814       1.814       1.814       1.814       1.814       1.814    
        1.814       1.814       1.814       1.814       1.814       1.814       1.814       1.814       1.814       1.814    
        1.814       1.814       1.814       1.814       1.814       1.814       1.814       1.814       1.814       1.814    
        1.814      0.8640      0.8640      0.8640      0.8640      0.8640    
  53   0.8640      0.8640      0.8640      0.8640      0.8640      0.8640      0.8640      0.8640      0.8640      0.8640    
        1.814       1.814       1.814       1.814       3.629       3.629       3.629       3.629       3.629       3.629    
        3.629       3.629       1.814       1.814       1.814       1.814       1.814       1.814       1.814       1.814    
        1.814       1.814       1.814       1.814       1.814       1.814       1.814       1.814       1.814       1.814    
        1.814       1.814       1.814       1.814       1.814       1.814       1.814       1.814       1.814       1.814    
        1.814       1.814       1.814       1.814       1.814       1.814       1.814       1.814       1.814       1.814    
        1.814       1.814       1.814       1.814       1.814       1.814       1.814       1.814       1.814       1.814    
        1.814       1.814       1.814       1.814       1.814       1.814       1.814       1.814       1.814       1.814    
        1.814       1.814       1.814       1.814       1.814       1.814       1.814       1.814       1.814       1.814    
        1.814       1.814       1.814       1.814       1.814       1.814       1.814       1.814       1.814       1.814    
        1.814       1.814       1.814       1.814       1.814       1.814       1.814       1.814       1.814       1.814    
        1.814       1.814       1.814       1.814       1.814       1.814       1.814       1.814       1.814       1.814    
        1.814       1.814       1.814       1.814       1.814       1.814       1.814       1.814       1.814       1.814    
        1.814       1.814       1.814       1.814       1.814       1.814       1.814       1.814       1.814       1.814    
        1.814       1.814       1.814       1.814       1.814       1.814       1.814       1.814       1.814       1.814    
        1.814       1.814       1.814       1.814       1.814       1.814       1.814       1.814       1.814       1.814    
        1.814       1.814       1.814       1.814       1.814       1.814       1.814       1.814       1.814       1.814    
        1.814       1.814       1.814       1.814       1.814       1.814       1.814       1.814       1.814      0.8640    
       0.8640      0.8640      0.8640      0.8640      0.8640      0.8640    
  54   0.8640      0.8640      0.8640      0.8640      0.8640      0.8640      0.8640      0.8640      0.8640      0.8640    
        1.814       1.814       1.814       1.814       3.629       3.629       3.629       3.629       3.629       3.629    
        3.629       3.629       1.814       1.814       1.814       1.814       1.814       1.814       1.814       1.814    
        1.814       1.814       1.814       1.814       1.814       1.814       1.814       1.814       1.814       1.814    
        1.814       1.814       1.814       1.814       1.814       1.814       1.814       1.814       1.814       1.814    
        1.814       1.814       1.814       1.814       1.814       1.814       1.814       1.814       1.814       1.814    
        1.814       1.814       1.814       1.814       1.814       1.814       1.814       1.814       1.814       1.814    
        1.814       1.814       1.814       1.814       1.814       1.814       1.814       1.814       1.814       1.814    
        1.814       1.814       1.814       1.814       1.814       1.814       1.814       1.814       1.814       1.814    
        1.814       1.814       1.814       1.814       1.814       1.814       1.814       1.814       1.814       1.814    
        1.814       1.814       1.814       1.814       1.814       1.814       1.814       1.814       1.814       1.814    
        1.814       1.814       1.814       1.814       1.814       1.814       1.814       1.814       1.814       1.814    
        1.814       1.814       1.814       1.814       1.814       1.814       1.814       1.814       1.814       1.814    
        1.814       1.814       1.814       1.814       1.814       1.814       1.814       1.814       1.814       1.814    
        1.814       1.814       1.814       1.814       1.814       1.814       1.814       1.814       1.814       1.814    
        1.814       1.814       1.814       1.814       1.814       1.814       1.814       1.814       1.814       1.814    
        1.814       1.814       1.814       1.814       1.814       1.814       1.814       1.814       1.814       1.814    
        1.814       1.814       1.814       1.814       1.814       1.814       1.814       1.814       1.814      0.8640    
       0.8640      0.8640      0.8640      0.8640      0.8640      0.8640    
  55   0.8640      0.8640      0.8640      0.8640      0.8640      0.8640      0.8640      0.8640      0.8640      0.8640    
        1.814       1.814       1.814       1.814       1.814       3.629       3.629       3.629       3.629       3.629    
        3.629       3.629       3.629       1.814       1.814       1.814       1.814       1.814       1.814       1.814    
        1.814       1.814       1.814       1.814       1.814       1.814       1.814       1.814       1.814       1.814    
        1.814       1.814       1.814       1.814       1.814       1.814       1.814       1.814       1.814       1.814    
        1.814       1.814       1.814       1.814       1.814       1.814       1.814       1.814       1.814       1.814    
        1.814       1.814       1.814       1.814       1.814       1.814       1.814       1.814       1.814       1.814    
        1.814       1.814       1.814       1.814       1.814       1.814       1.814       1.814       1.814       1.814    
        1.814       1.814       1.814       1.814       1.814       1.814       1.814       1.814       1.814       1.814    
        1.814       1.814       1.814       1.814       1.814       1.814       1.814       1.814       1.814       1.814    
        1.814       1.814       1.814       1.814       1.814       1.814       1.814       1.814       1.814       1.814    
        1.814       1.814       1.814       1.814       1.814       1.814       1.814       1.814       1.814       1.814    
        1.814       1.814       1.814       1.814       1.814       1.814      0.8640      0.8640      0.8640      0.8640    
       0.8640      0.8640       1.814       1.814       1.814       1.814       1.814       1.814       1.814       1.814    
        1.814       1.814       1.814       1.814       1.814       1.814       1.814       1.814       1.814       1.814    
        1.814       1.814       1.814       1.814       1.814       1.814       1.814       1.814       1.814       1.814    
        1.814       1.814       1.814       1.814       1.814       1.814       1.814       1.814       1.814       1.814    
        1.814       1.814       1.814       1.814       1.814       1.814       1.814       1.814      0.8640      0.8640    
       0.8640      0.8640      0.8640      0.8640      0.8640      0.8640    
  56   0.8640      0.8640      0.8640      0.8640      0.8640      0.8640      0.8640      0.8640      0.8640      0.8640    
        1.814       1.814       1.814       1.814       1.814       3.629       3.629       3.629       3.629       3.629    
        3.629       3.629       3.629       3.629       1.814       1.814       1.814       1.814       1.814       1.814    
        1.814       1.814       1.814       1.814       1.814       1.814       1.814       1.814       1.814       1.814    
        1.814       1.814       1.814       1.814       1.814       1.814       1.814       1.814       1.814       1.814    
        1.814       1.814       1.814       1.814       1.814       1.814       1.814       1.814       1.814       1.814    
        1.814       1.814       1.814       1.814       1.814       1.814       1.814       1.814       1.814       1.814    
        1.814       1.814       1.814       1.814       1.814       1.814       1.814       1.814       1.814       1.814    
        1.814       1.814       1.814       1.814       1.814       1.814       1.814       1.814       1.814       1.814    
        1.814       1.814       1.814       1.814       1.814       1.814       1.814       1.814       1.814       1.814    
        1.814       1.814       1.814       1.814       1.814       1.814       1.814       1.814       1.814       1.814    
        1.814       1.814       1.814       1.814       1.814       1.814       1.814       1.814       1.814       1.814    
        1.814       1.814       1.814       1.814      0.8640      0.8640      0.8640      0.8640      0.8640      0.8640    
       0.8640      0.8640      0.8640      0.8640      0.8640      0.8640       1.814       1.814       1.814       1.814    
        1.814       1.814       1.814       1.814       1.814       1.814       1.814       1.814       1.814       1.814    
        1.814       1.814       1.814       1.814       1.814       1.814       1.814       1.814       1.814       1.814    
        1.814       1.814       1.814       1.814       1.814       1.814       1.814       1.814       1.814       1.814    
        1.814       1.814       1.814       1.814       1.814       1.814      0.8640      0.8640      0.8640      0.8640    
       0.8640      0.8640      0.8640      0.8640      0.8640      0.8640    
  57   0.8640      0.8640      0.8640      0.8640      0.8640      0.8640      0.8640      0.8640      0.8640      0.8640    
        1.814       1.814       1.814       1.814       1.814       3.629       3.629       3.629       3.629       3.629    
        3.629       3.629       3.629       3.629       1.814       1.814       1.814       1.814       1.814       1.814    
        1.814       1.814       1.814       1.814       1.814       1.814       1.814       1.814       1.814       1.814    
        1.814       1.814       1.814       1.814       1.814       1.814       1.814       1.814       1.814       1.814    
        1.814       1.814       1.814       1.814       1.814       1.814       1.814       1.814       1.814       1.814    
        1.814       1.814       1.814       1.814       1.814       1.814       1.814       1.814       1.814       1.814    
        1.814       1.814       1.814       1.814       1.814       1.814       1.814       1.814       1.814       1.814    
        1.814       1.814       1.814       1.814       1.814       1.814       1.814       1.814       1.814       1.814    
        1.814       1.814       1.814       1.814       1.814       1.814       1.814       1.814       1.814       1.814    
        1.814       1.814       1.814       1.814       1.814       1.814       1.814       1.814       1.814       1.814    
        1.814       1.814       1.814       1.814       1.814       1.814       1.814       1.814       1.814       1.814    
        1.814       1.814       1.814       1.814      0.8640      0.8640      0.8640      0.8640      0.8640      0.8640    
       0.8640      0.8640      0.8640      0.8640      0.8640      0.8640      0.8640      0.8640       1.814       1.814    
        1.814       1.814       1.814       1.814       1.814       1.814       1.814       1.814       1.814       1.814    
        1.814       1.814       1.814       1.814       1.814       1.814       1.814       1.814       1.814       1.814    
        1.814       1.814       1.814       1.814       1.814       1.814       1.814       1.814       1.814       1.814    
        1.814       1.814       1.814       1.814      0.8640      0.8640      0.8640      0.8640      0.8640      0.8640    
       0.8640      0.8640      0.8640      0.8640      0.8640      0.8640    
  58   0.8640      0.8640      0.8640      0.8640      0.8640      0.8640      0.8640      0.8640      0.8640      0.8640    
       0.8640       1.814       1.814       1.814       1.814       1.814       3.629       3.629       3.629       3.629    
        3.629       3.629       3.629       3.629       3.629       1.814       1.814       1.814       1.814       1.814    
        1.814       1.814       1.814       1.814       1.814       1.814       1.814       1.814       1.814       1.814    
        1.814       1.814       1.814       1.814       1.814       1.814       1.814       1.814       1.814       1.814    
        1.814       1.814       1.814       1.814       1.814       1.814       1.814       1.814       1.814       1.814    
        1.814       1.814       1.814       1.814       1.814       1.814       1.814       1.814       1.814       1.814    
        1.814       1.814       1.814       1.814       1.814       1.814       1.814       1.814       1.814       1.814    
        1.814       1.814       1.814       1.814       1.814       1.814       1.814       1.814       1.814       1.814    
        1.814       1.814       1.814       1.814       1.814       1.814       1.814       1.814       1.814       1.814    
        1.814       1.814       1.814       1.814       1.814       1.814       1.814       1.814       1.814       1.814    
        1.814       1.814       1.814       1.814       1.814       1.814       1.814       1.814       1.814       1.814    
        1.814       1.814       1.814       1.814      0.8640      0.8640      0.8640      0.8640      0.8640      0.8640    
       0.8640      0.8640      0.8640      0.8640      0.8640      0.8640      0.8640      0.8640      0.8640      0.8640    
       0.8640      0.8640       1.814       1.814       1.814       1.814       1.814       1.814       1.814       1.814    
        1.814       1.814       1.814       1.814       1.814       1.814       1.814       1.814       1.814       1.814    
        1.814       1.814       1.814       1.814       1.814       1.814       1.814       1.814       1.814       1.814    
        1.814       1.814      0.8640      0.8640      0.8640      0.8640      0.8640      0.8640      0.8640      0.8640    
       0.8640      0.8640      0.8640      0.8640      0.8640      0.8640    
  59   0.8640      0.8640      0.8640      0.8640      0.8640      0.8640      0.8640      0.8640      0.8640      0.8640    
       0.8640       1.814       1.814       1.814       1.814       1.814       3.629       3.629       3.629       3.629    
        3.629       3.629       3.629       3.629       3.629       1.814       1.814       1.814       1.814       1.814    
        1.814       1.814       1.814       1.814       1.814       1.814       1.814       1.814       1.814       1.814    
        1.814       1.814       1.814       1.814       1.814       1.814       1.814       1.814       1.814       1.814    
        1.814       1.814       1.814       1.814       1.814       1.814       1.814       1.814       1.814       1.814    
        1.814       1.814       1.814       1.814       1.814       1.814       1.814       1.814       1.814       1.814    
        1.814       1.814       1.814       1.814       1.814       1.814       1.814       1.814       1.814       1.814    
        1.814       1.814       1.814       1.814       1.814       1.814       1.814       1.814       1.814       1.814    
        1.814       1.814       1.814       1.814       1.814       1.814       1.814       1.814       1.814       1.814    
        1.814       1.814       1.814       1.814       1.814       1.814       1.814       1.814       1.814       1.814    
        1.814       1.814       1.814       1.814       1.814       1.814       1.814       1.814       1.814       1.814    
        1.814       1.814       1.814      0.8640      0.8640      0.8640      0.8640      0.8640      0.8640      0.8640    
       0.8640      0.8640      0.8640      0.8640      0.8640      0.8640      0.8640      0.8640      0.8640      0.8640    
       0.8640      0.8640      0.8640      0.8640      0.8640      0.8640      0.8640      0.8640      0.8640      0.8640    
       0.8640      0.8640      0.8640      0.8640      0.8640      0.8640      0.8640      0.8640      0.8640      0.8640    
       0.8640      0.8640      0.8640      0.8640      0.8640      0.8640      0.8640      0.8640      0.8640      0.8640    
       0.8640      0.8640      0.8640      0.8640      0.8640      0.8640      0.8640      0.8640      0.8640      0.8640    
       0.8640      0.8640      0.8640      0.8640      0.8640      0.8640    
  60   0.8640      0.8640      0.8640      0.8640      0.8640      0.8640      0.8640      0.8640      0.8640      0.8640    
       0.8640       1.814       1.814       1.814       1.814       1.814       3.629       3.629       3.629       3.629    
        3.629       3.629       3.629       3.629       3.629       3.629       1.814       1.814       1.814       1.814    
        1.814       1.814       1.814       1.814       1.814       1.814       1.814       1.814       1.814       1.814    
        1.814       1.814       1.814       1.814       1.814       1.814       1.814       1.814       1.814       1.814    
        1.814       1.814       1.814       1.814       1.814       1.814       1.814       1.814       1.814       1.814    
        1.814       1.814       1.814       1.814       1.814       1.814       1.814       1.814       1.814       1.814    
        1.814       1.814       1.814       1.814       1.814       1.814       1.814       1.814       1.814       1.814    
        1.814       1.814       1.814       1.814       1.814       1.814       1.814       1.814       1.814       1.814    
        1.814       1.814       1.814       1.814       1.814       1.814       1.814       1.814       1.814       1.814    
        1.814       1.814       1.814       1.814       1.814       1.814       1.814       1.814       1.814       1.814    
        1.814       1.814       1.814       1.814       1.814       1.814       1.814       1.814       1.814       1.814    
        1.814       1.814       1.814      0.8640      0.8640      0.8640      0.8640      0.8640      0.8640      0.8640    
       0.8640      0.8640      0.8640      0.8640      0.8640      0.8640      0.8640      0.8640      0.8640      0.8640    
       0.8640      0.8640      0.8640      0.8640      0.8640      0.8640      0.8640      0.8640      0.8640      0.8640    
       0.8640      0.8640      0.8640      0.8640      0.8640      0.8640      0.8640      0.8640      0.8640      0.8640    
       0.8640      0.8640      0.8640      0.8640      0.8640      0.8640      0.8640      0.8640      0.8640      0.8640    
       0.8640      0.8640      0.8640      0.8640      0.8640      0.8640      0.8640      0.8640      0.8640      0.8640    
       0.8640      0.8640      0.8640      0.8640      0.8640      0.8640    
  61   0.8640      0.8640      0.8640      0.8640      0.8640      0.8640      0.8640      0.8640      0.8640      0.8640    
       0.8640       1.814       1.814       1.814       1.814       1.814       1.814       3.629       3.629       3.629    
        3.629       3.629       3.629       3.629       3.629       3.629       3.629       1.814       1.814       1.814    
        1.814       1.814       1.814       1.814       1.814       1.814       1.814       1.814       1.814       1.814    
        1.814       1.814       1.814       1.814       1.814       1.814       1.814       1.814       1.814       1.814    
        1.814       1.814       1.814       1.814       1.814       1.814       1.814       1.814       1.814       1.814    
        1.814       1.814       1.814       1.814       1.814       1.814       1.814       1.814       1.814       1.814    
        1.814       1.814       1.814       1.814       1.814       1.814       1.814       1.814       1.814       1.814    
        1.814       1.814       1.814       1.814       1.814       1.814       1.814       1.814       1.814       1.814    
        1.814       1.814       1.814       1.814       1.814       1.814       1.814       1.814       1.814       1.814    
        1.814       1.814       1.814       1.814       1.814       1.814       1.814       1.814       1.814       1.814    
        1.814       1.814       1.814       1.814       1.814       1.814       1.814       1.814       1.814       1.814    
        1.814       1.814       1.814      0.8640      0.8640      0.8640      0.8640      0.8640      0.8640      0.8640    
       0.8640      0.8640      0.8640      0.8640      0.8640      0.8640      0.8640      0.8640      0.8640      0.8640    
       0.8640      0.8640      0.8640      0.8640      0.8640      0.8640      0.8640      0.8640      0.8640      0.8640    
       0.8640      0.8640      0.8640      0.8640      0.8640      0.8640      0.8640      0.8640      0.8640      0.8640    
       0.8640      0.8640      0.8640      0.8640      0.8640      0.8640      0.8640      0.8640      0.8640      0.8640    
       0.8640      0.8640      0.8640      0.8640      0.8640      0.8640      0.8640      0.8640      0.8640      0.8640    
       0.8640      0.8640      0.8640      0.8640      0.8640      0.8640    
  62   0.8640      0.8640      0.8640      0.8640      0.8640      0.8640      0.8640      0.8640      0.8640      0.8640    
       0.8640       1.814       1.814       1.814       1.814       1.814       1.814       3.629       3.629       3.629    
        3.629       3.629       3.629       3.629       3.629       3.629       3.629       1.814       1.814       1.814    
        1.814       1.814       1.814       1.814       1.814       1.814       1.814       1.814       1.814       1.814    
        1.814       1.814       1.814       1.814       1.814       1.814       1.814       1.814       1.814       1.814    
        1.814       1.814       1.814       1.814       1.814       1.814       1.814       1.814       1.814       1.814    
        1.814       1.814       1.814       1.814       1.814       1.814       1.814       1.814       1.814       1.814    
        1.814       1.814       1.814       1.814       1.814       1.814       1.814       1.814       1.814       1.814    
        1.814       1.814       1.814       1.814       1.814       1.814       1.814       1.814       1.814       1.814    
        1.814       1.814       1.814       1.814       1.814       1.814       1.814       1.814       1.814       1.814    
        1.814       1.814       1.814       1.814       1.814       1.814       1.814       1.814       1.814       1.814    
        1.814       1.814       1.814       1.814       1.814       1.814       1.814       1.814       1.814       1.814    
        1.814       1.814       1.814      0.8640      0.8640      0.8640      0.8640      0.8640      0.8640      0.8640    
       0.8640      0.8640      0.8640      0.8640      0.8640      0.8640      0.8640      0.8640      0.8640      0.8640    
       0.8640      0.8640      0.8640      0.8640      0.8640      0.8640      0.8640      0.8640      0.8640      0.8640    
       0.8640      0.8640      0.8640      0.8640      0.8640      0.8640      0.8640      0.8640      0.8640      0.8640    
       0.8640      0.8640      0.8640      0.8640      0.8640      0.8640      0.8640      0.8640      0.8640      0.8640    
       0.8640      0.8640      0.8640      0.8640      0.8640      0.8640      0.8640      0.8640      0.8640      0.8640    
       0.8640      0.8640      0.8640      0.8640      0.8640      0.8640    
  63   0.8640      0.8640      0.8640      0.8640      0.8640      0.8640      0.8640      0.8640      0.8640      0.8640    
       0.8640       1.814       1.814       1.814       1.814       1.814       1.814       3.629       3.629       3.629    
        3.629       3.629       3.629       3.629       3.629       3.629       3.629       3.629       1.814       1.814    
        1.814       1.814       1.814       1.814       1.814       1.814       1.814       1.814       1.814       1.814    
        1.814       1.814       1.814       1.814       1.814       1.814       1.814       1.814       1.814       1.814    
        1.814       1.814       1.814       1.814       1.814       1.814       1.814       1.814       1.814       1.814    
        1.814       1.814       1.814       1.814       1.814       1.814       1.814       1.814       1.814       1.814    
        1.814       1.814       1.814       1.814       1.814       1.814       1.814       1.814       1.814       1.814    
        1.814       1.814       1.814       1.814       1.814       1.814       1.814       1.814       1.814       1.814    
        1.814       1.814       1.814       1.814       1.814       1.814       1.814       1.814       1.814       1.814    
        1.814       1.814       1.814       1.814       1.814       1.814       1.814       1.814       1.814       1.814    
        1.814       1.814       1.814       1.814       1.814       1.814       1.814       1.814       1.814       1.814    
        1.814       1.814       1.814      0.8640      0.8640      0.8640      0.8640      0.8640      0.8640      0.8640    
       0.8640      0.8640      0.8640      0.8640      0.8640      0.8640      0.8640      0.8640      0.8640      0.8640    
       0.8640      0.8640      0.8640      0.8640      0.8640      0.8640      0.8640      0.8640      0.8640      0.8640    
       0.8640      0.8640      0.8640      0.8640      0.8640      0.8640      0.8640      0.8640      0.8640      0.8640    
       0.8640      0.8640      0.8640      0.8640      0.8640      0.8640      0.8640      0.8640      0.8640      0.8640    
       0.8640      0.8640      0.8640      0.8640      0.8640      0.8640      0.8640      0.8640      0.8640      0.8640    
       0.8640      0.8640      0.8640      0.8640      0.8640      0.8640    
  64   0.8640      0.8640      0.8640      0.8640      0.8640      0.8640      0.8640      0.8640      0.8640      0.8640    
       0.8640       1.814       1.814       1.814       1.814       1.814       1.814       3.629       3.629       3.629    
        3.629       3.629       3.629       3.629       3.629       3.629       3.629       3.629       3.629       1.814    
        1.814       1.814       1.814       1.814       1.814       1.814       1.814       1.814       1.814       1.814    
        1.814       1.814       1.814       1.814       1.814       1.814       1.814       1.814       1.814       1.814    
        1.814       1.814       1.814       1.814       1.814       1.814       1.814       1.814       1.814       1.814    
        1.814       1.814       1.814       1.814       1.814       1.814       1.814       1.814       1.814       1.814    
        1.814       1.814       1.814       1.814       1.814       1.814       1.814       1.814       1.814       1.814    
        1.814       1.814       1.814       1.814       1.814       1.814       1.814       1.814       1.814       1.814    
        1.814       1.814       1.814       1.814       1.814       1.814       1.814       1.814       1.814       1.814    
        1.814       1.814       1.814       1.814       1.814       1.814       1.814       1.814       1.814       1.814    
        1.814       1.814       1.814       1.814       1.814       1.814       1.814       1.814       1.814       1.814    
        1.814       1.814       1.814      0.8640      0.8640      0.8640      0.8640      0.8640      0.8640      0.8640    
       0.8640      0.8640      0.8640      0.8640      0.8640      0.8640      0.8640      0.8640      0.8640      0.8640    
       0.8640      0.8640      0.8640      0.8640      0.8640      0.8640      0.8640      0.8640      0.8640      0.8640    
       0.8640      0.8640      0.8640      0.8640      0.8640      0.8640      0.8640      0.8640      0.8640      0.8640    
       0.8640      0.8640      0.8640      0.8640      0.8640      0.8640      0.8640      0.8640      0.8640      0.8640    
       0.8640      0.8640      0.8640      0.8640      0.8640      0.8640      0.8640      0.8640      0.8640      0.8640    
       0.8640      0.8640      0.8640      0.8640      0.8640      0.8640    
  65   0.8640      0.8640      0.8640      0.8640      0.8640      0.8640      0.8640      0.8640      0.8640      0.8640    
       0.8640       1.814       1.814       1.814       1.814       1.814       1.814       3.629       3.629       3.629    
        3.629       3.629       3.629       3.629       3.629       3.629       3.629       3.629       3.629       1.814    
        1.814       1.814       1.814       1.814       1.814       1.814       1.814       1.814       1.814       1.814    
        1.814       1.814       1.814       1.814       1.814       1.814       1.814       1.814       1.814       1.814    
        1.814       1.814       1.814       1.814       1.814       1.814       1.814       1.814       1.814       1.814    
        1.814       1.814       1.814       1.814       1.814       1.814       1.814       1.814       1.814       1.814    
        1.814       1.814       1.814       1.814       1.814       1.814       1.814       1.814       1.814       1.814    
        1.814       1.814       1.814       1.814       1.814       1.814       1.814       1.814       1.814       1.814    
        1.814       1.814       1.814       1.814       1.814       1.814       1.814       1.814       1.814       1.814    
        1.814       1.814       1.814       1.814       1.814       1.814       1.814       1.814       1.814       1.814    
        1.814       1.814       1.814       1.814       1.814       1.814       1.814       1.814       1.814       1.814    
        1.814       1.814       1.814      0.8640      0.8640      0.8640      0.8640      0.8640      0.8640      0.8640    
       0.8640      0.8640      0.8640      0.8640      0.8640      0.8640      0.8640      0.8640      0.8640      0.8640    
       0.8640      0.8640      0.8640      0.8640      0.8640      0.8640      0.8640      0.8640      0.8640      0.8640    
       0.8640      0.8640      0.8640      0.8640      0.8640      0.8640      0.8640      0.8640      0.8640      0.8640    
       0.8640      0.8640      0.8640      0.8640      0.8640      0.8640      0.8640      0.8640      0.8640      0.8640    
       0.8640      0.8640      0.8640      0.8640      0.8640      0.8640      0.8640      0.8640      0.8640      0.8640    
       0.8640      0.8640      0.8640      0.8640      0.8640      0.8640    
  66   0.8640      0.8640      0.8640      0.8640      0.8640      0.8640      0.8640      0.8640      0.8640      0.8640    
       0.8640       1.814       1.814       1.814       1.814       1.814       1.814       1.814       3.629       3.629    
        3.629       3.629       3.629       3.629       3.629       3.629       3.629       3.629       3.629       3.629    
        1.814       1.814       1.814       1.814       1.814       1.814       1.814       1.814       1.814       1.814    
        1.814       1.814       1.814       1.814       1.814       1.814       1.814       1.814       1.814       1.814    
        1.814       1.814       1.814       1.814       1.814       1.814       1.814       1.814       1.814       1.814    
        1.814       1.814       1.814       1.814       1.814       1.814       1.814       1.814       1.814       1.814    
        1.814       1.814       1.814       1.814       1.814       1.814       1.814       1.814       1.814       1.814    
        1.814       1.814       1.814       1.814       1.814       1.814       1.814       1.814       1.814       1.814    
        1.814       1.814       1.814       1.814       1.814       1.814       1.814       1.814       1.814       1.814    
        1.814       1.814       1.814       1.814       1.814       1.814       1.814       1.814       1.814       1.814    
        1.814       1.814       1.814       1.814       1.814       1.814       1.814       1.814       1.814       1.814    
        1.814       1.814       1.814      0.8640      0.8640      0.8640      0.8640      0.8640      0.8640      0.8640    
       0.8640      0.8640      0.8640      0.8640      0.8640      0.8640      0.8640      0.8640      0.8640      0.8640    
       0.8640      0.8640      0.8640      0.8640      0.8640      0.8640      0.8640      0.8640      0.8640      0.8640    
       0.8640      0.8640      0.8640      0.8640      0.8640      0.8640      0.8640      0.8640      0.8640      0.8640    
       0.8640      0.8640      0.8640      0.8640      0.8640      0.8640      0.8640      0.8640      0.8640      0.8640    
       0.8640      0.8640      0.8640      0.8640      0.8640      0.8640      0.8640      0.8640      0.8640      0.8640    
       0.8640      0.8640      0.8640      0.8640      0.8640      0.8640    
  67   0.8640      0.8640      0.8640      0.8640      0.8640      0.8640      0.8640      0.8640      0.8640      0.8640    
       0.8640      0.8640       1.814       1.814       1.814       1.814       1.814       1.814       3.629       3.629    
        3.629       3.629       3.629       3.629       3.629       3.629       3.629       3.629       3.629       3.629    
        1.814       1.814       1.814       1.814       1.814       1.814       1.814       1.814       1.814       1.814    
        1.814       1.814       1.814       1.814       1.814       1.814       1.814       1.814       1.814       1.814    
        1.814       1.814       1.814       1.814       1.814       1.814       1.814       1.814       1.814       1.814    
        1.814       1.814       1.814       1.814       1.814       1.814       1.814       1.814       1.814       1.814    
        1.814       1.814       1.814       1.814       1.814       1.814       1.814       1.814       1.814       1.814    
        1.814       1.814       1.814       1.814       1.814       1.814       1.814       1.814       1.814       1.814    
        1.814       1.814       1.814       1.814       1.814       1.814       1.814       1.814       1.814       1.814    
        1.814       1.814       1.814       1.814       1.814       1.814       1.814       1.814       1.814       1.814    
        1.814       1.814       1.814       1.814       1.814       1.814       1.814       1.814       1.814       1.814    
        1.814       1.814       1.814      0.8640      0.8640      0.8640      0.8640      0.8640      0.8640      0.8640    
       0.8640      0.8640      0.8640      0.8640      0.8640      0.8640      0.8640      0.8640      0.8640      0.8640    
       0.8640      0.8640      0.8640      0.8640      0.8640      0.8640      0.8640      0.8640      0.8640      0.8640    
       0.8640      0.8640      0.8640      0.8640      0.8640      0.8640      0.8640      0.8640      0.8640      0.8640    
       0.8640      0.8640      0.8640      0.8640      0.8640      0.8640      0.8640      0.8640      0.8640      0.8640    
       0.8640      0.8640      0.8640      0.8640      0.8640      0.8640      0.8640      0.8640      0.8640      0.8640    
       0.8640      0.8640      0.8640      0.8640      0.8640      0.8640    
  68   0.8640      0.8640      0.8640      0.8640      0.8640      0.8640      0.8640      0.8640      0.8640      0.8640    
       0.8640      0.8640       1.814       1.814       1.814       1.814       1.814       1.814       1.814       3.629    
        3.629       3.629       3.629       3.629       3.629       3.629       3.629       3.629       3.629       3.629    
        1.814       1.814       1.814       1.814       1.814       1.814       1.814       1.814       1.814       1.814    
        1.814       1.814       1.814       1.814       1.814       1.814       1.814       1.814       1.814       1.814    
        1.814       1.814       1.814       1.814       1.814       1.814       1.814       1.814       1.814       1.814    
        1.814       1.814       1.814       1.814       1.814       1.814       1.814       1.814       1.814       1.814    
        1.814       1.814       1.814       1.814       1.814       1.814       1.814       1.814       1.814       1.814    
        1.814       1.814       1.814       1.814       1.814       1.814       1.814       1.814       1.814       1.814    
        1.814       1.814       1.814       1.814       1.814       1.814       1.814       1.814       1.814       1.814    
        1.814       1.814       1.814       1.814       1.814       1.814       1.814       1.814       1.814       1.814    
        1.814       1.814       1.814       1.814       1.814       1.814       1.814       1.814       1.814       1.814    
        1.814       1.814       1.814       1.814      0.8640      0.8640      0.8640      0.8640      0.8640      0.8640    
       0.8640      0.8640      0.8640      0.8640      0.8640      0.8640      0.8640      0.8640      0.8640      0.8640    
       0.8640      0.8640      0.8640      0.8640      0.8640      0.8640      0.8640      0.8640      0.8640      0.8640    
       0.8640      0.8640      0.8640      0.8640      0.8640      0.8640      0.8640      0.8640      0.8640      0.8640    
       0.8640      0.8640      0.8640      0.8640      0.8640      0.8640      0.8640      0.8640      0.8640      0.8640    
       0.8640      0.8640      0.8640      0.8640      0.8640      0.8640      0.8640      0.8640      0.8640      0.8640    
       0.8640      0.8640      0.8640      0.8640      0.8640      0.8640    
  69   0.8640      0.8640      0.8640      0.8640      0.8640      0.8640      0.8640      0.8640      0.8640      0.8640    
       0.8640      0.8640       1.814       1.814       1.814       1.814       1.814       1.814       1.814       3.629    
        3.629       3.629       3.629       3.629       3.629       3.629       3.629       3.629       3.629       3.629    
        3.629       1.814       1.814       1.814       1.814       1.814       1.814       1.814       1.814       1.814    
        1.814       1.814       1.814       1.814       1.814       1.814       1.814       1.814       1.814       1.814    
        1.814       1.814       1.814       1.814       1.814       1.814       1.814       1.814       1.814       1.814    
        1.814       1.814       1.814       1.814       1.814       1.814       1.814       1.814       1.814       1.814    
        1.814       1.814       1.814       1.814       1.814       1.814       1.814       1.814       1.814       1.814    
        1.814       1.814       1.814       1.814       1.814       1.814       1.814       1.814       1.814       1.814    
        1.814       1.814       1.814       1.814       1.814       1.814       1.814       1.814       1.814       1.814    
        1.814       1.814       1.814       1.814       1.814       1.814       1.814       1.814       1.814       1.814    
        1.814       1.814       1.814       1.814       1.814       1.814       1.814       1.814       1.814       1.814    
        1.814       1.814       1.814       1.814      0.8640      0.8640      0.8640      0.8640      0.8640      0.8640    
       0.8640      0.8640      0.8640      0.8640      0.8640      0.8640      0.8640      0.8640      0.8640      0.8640    
       0.8640      0.8640      0.8640      0.8640      0.8640      0.8640      0.8640      0.8640      0.8640      0.8640    
       0.8640      0.8640      0.8640      0.8640      0.8640      0.8640      0.8640      0.8640      0.8640      0.8640    
       0.8640      0.8640      0.8640      0.8640      0.8640      0.8640      0.8640      0.8640      0.8640      0.8640    
       0.8640      0.8640      0.8640      0.8640      0.8640      0.8640      0.8640      0.8640      0.8640      0.8640    
       0.8640      0.8640      0.8640      0.8640      0.8640      0.8640    
  70   0.8640      0.8640      0.8640      0.8640      0.8640      0.8640      0.8640      0.8640      0.8640      0.8640    
       0.8640      0.8640       1.814       1.814       1.814       1.814       1.814       1.814       1.814       3.629    
        3.629       3.629       3.629       3.629       3.629       3.629       3.629       3.629       3.629       3.629    
        3.629       1.814       1.814       1.814       1.814       1.814       1.814       1.814       1.814       1.814    
        1.814       1.814       1.814       1.814       1.814       1.814       1.814       1.814       1.814       1.814    
        1.814       1.814       1.814       1.814       1.814       1.814       1.814       1.814       1.814       1.814    
        1.814       1.814       1.814       1.814       1.814       1.814       1.814       1.814       1.814       1.814    
        1.814       1.814       1.814       1.814       1.814       1.814       1.814       1.814       1.814       1.814    
        1.814       1.814       1.814       1.814       1.814       1.814       1.814       1.814       1.814       1.814    
        1.814       1.814       1.814       1.814       1.814       1.814       1.814       1.814       1.814       1.814    
        1.814       1.814       1.814       1.814       1.814       1.814       1.814       1.814       1.814       1.814    
        1.814       1.814       1.814       1.814       1.814       1.814       1.814       1.814       1.814       1.814    
        1.814       1.814       1.814       1.814       1.814      0.8640      0.8640      0.8640      0.8640      0.8640    
       0.8640      0.8640      0.8640      0.8640      0.8640      0.8640      0.8640      0.8640      0.8640      0.8640    
       0.8640      0.8640      0.8640      0.8640      0.8640      0.8640      0.8640      0.8640      0.8640      0.8640    
       0.8640      0.8640      0.8640      0.8640      0.8640      0.8640      0.8640      0.8640      0.8640      0.8640    
       0.8640      0.8640      0.8640      0.8640      0.8640      0.8640      0.8640      0.8640      0.8640      0.8640    
       0.8640      0.8640      0.8640      0.8640      0.8640      0.8640      0.8640      0.8640      0.8640      0.8640    
       0.8640      0.8640      0.8640      0.8640      0.8640      0.8640    
  71   0.8640      0.8640      0.8640      0.8640      0.8640      0.8640      0.8640      0.8640      0.8640      0.8640    
       0.8640      0.8640       1.814       1.814       1.814       1.814       1.814       1.814       1.814       3.629    
        3.629       3.629       3.629       3.629       3.629       3.629       3.629       3.629       3.629       3.629    
        3.629       1.814       1.814       1.814       1.814       1.814       1.814       1.814       1.814       1.814    
        1.814       1.814       1.814       1.814       1.814       1.814       1.814       1.814       1.814       1.814    
        1.814       1.814       1.814       1.814       1.814       1.814       1.814       1.814       1.814       1.814    
        1.814       1.814       1.814       1.814       1.814       1.814       1.814       1.814       1.814       1.814    
        1.814       1.814       1.814       1.814       1.814       1.814       1.814       1.814       1.814       1.814    
        1.814       1.814       1.814       1.814       1.814       1.814       1.814       1.814       1.814       1.814    
        1.814       1.814       1.814       1.814       1.814       1.814       1.814       1.814       1.814       1.814    
        1.814       1.814       1.814       1.814       1.814       1.814       1.814       1.814       1.814       1.814    
        1.814       1.814       1.814       1.814       1.814       1.814       1.814       1.814       1.814       1.814    
        1.814       1.814       1.814       1.814       1.814      0.8640      0.8640      0.8640      0.8640      0.8640    
       0.8640      0.8640      0.8640      0.8640      0.8640      0.8640      0.8640      0.8640      0.8640      0.8640    
       0.8640      0.8640      0.8640      0.8640      0.8640      0.8640      0.8640      0.8640      0.8640      0.8640    
       0.8640      0.8640      0.8640      0.8640      0.8640      0.8640      0.8640      0.8640      0.8640      0.8640    
       0.8640      0.8640      0.8640      0.8640      0.8640      0.8640      0.8640      0.8640      0.8640      0.8640    
       0.8640      0.8640      0.8640      0.8640      0.8640      0.8640      0.8640      0.8640      0.8640      0.8640    
       0.8640      0.8640      0.8640      0.8640      0.8640      0.8640    
  72   0.8640      0.8640      0.8640      0.8640      0.8640      0.8640      0.8640      0.8640      0.8640      0.8640    
       0.8640      0.8640       1.814       1.814       1.814       1.814       1.814       1.814       1.814       1.814    
        3.629       3.629       3.629       3.629       3.629       3.629       3.629       3.629       3.629       3.629    
        3.629       1.814       1.814       1.814       1.814       1.814       1.814       1.814       1.814       1.814    
        1.814       1.814       1.814       1.814       1.814       1.814       1.814       1.814       1.814       1.814    
        1.814       1.814       1.814       1.814       1.814       1.814       1.814       1.814       1.814       1.814    
        1.814       1.814       1.814       1.814       1.814       1.814       1.814       1.814       1.814       1.814    
        1.814       1.814       1.814       1.814       1.814       1.814       1.814       1.814       1.814       1.814    
        1.814       1.814       1.814       1.814       1.814       1.814       1.814       1.814       1.814       1.814    
        1.814       1.814       1.814       1.814       1.814       1.814       1.814       1.814       1.814       1.814    
        1.814       1.814       1.814       1.814       1.814       1.814       1.814       1.814       1.814       1.814    
        1.814       1.814       1.814       1.814       1.814       1.814       1.814       1.814       1.814       1.814    
        1.814       1.814       1.814       1.814       1.814      0.8640      0.8640      0.8640      0.8640      0.8640    
       0.8640      0.8640      0.8640      0.8640      0.8640      0.8640      0.8640      0.8640      0.8640      0.8640    
       0.8640      0.8640      0.8640      0.8640      0.8640      0.8640      0.8640      0.8640      0.8640      0.8640    
       0.8640      0.8640      0.8640      0.8640      0.8640      0.8640      0.8640      0.8640      0.8640      0.8640    
       0.8640      0.8640      0.8640      0.8640      0.8640      0.8640      0.8640      0.8640      0.8640      0.8640    
       0.8640      0.8640      0.8640      0.8640      0.8640      0.8640      0.8640      0.8640      0.8640      0.8640    
       0.8640      0.8640      0.8640      0.8640      0.8640      0.8640    
  73   0.8640      0.8640      0.8640      0.8640      0.8640      0.8640      0.8640      0.8640      0.8640      0.8640    
       0.8640      0.8640       1.814       1.814       1.814       1.814       1.814       1.814       1.814       1.814    
        3.629       3.629       3.629       3.629       3.629       3.629       3.629       3.629       3.629       3.629    
        3.629       3.629       1.814       1.814       1.814       1.814       1.814       1.814       1.814       1.814    
        1.814       1.814       1.814       1.814       1.814       1.814       1.814       1.814       1.814       1.814    
        1.814       1.814       1.814       1.814       1.814       1.814       1.814       1.814       1.814       1.814    
        1.814       1.814       1.814       1.814       1.814       1.814       1.814       1.814       1.814       1.814    
        1.814       1.814       1.814       1.814       1.814       1.814       1.814       1.814       1.814       1.814    
        1.814       1.814       1.814       1.814       1.814       1.814       1.814       1.814       1.814       1.814    
        1.814       1.814       1.814       1.814       1.814       1.814       1.814       1.814       1.814       1.814    
        1.814       1.814       1.814       1.814       1.814       1.814       1.814       1.814       1.814       1.814    
        1.814       1.814       1.814       1.814       1.814       1.814       1.814       1.814       1.814       1.814    
        1.814       1.814       1.814       1.814       1.814       1.814      0.8640      0.8640      0.8640      0.8640    
       0.8640      0.8640      0.8640      0.8640      0.8640      0.8640      0.8640      0.8640      0.8640      0.8640    
       0.8640      0.8640      0.8640      0.8640      0.8640      0.8640      0.8640      0.8640      0.8640      0.8640    
       0.8640      0.8640      0.8640      0.8640      0.8640      0.8640      0.8640      0.8640      0.8640      0.8640    
       0.8640      0.8640      0.8640      0.8640      0.8640      0.8640      0.8640      0.8640      0.8640      0.8640    
       0.8640      0.8640      0.8640      0.8640      0.8640      0.8640      0.8640      0.8640      0.8640      0.8640    
       0.8640      0.8640      0.8640      0.8640      0.8640      0.8640    
  74   0.8640      0.8640      0.8640      0.8640      0.8640      0.8640      0.8640      0.8640      0.8640      0.8640    
       0.8640      0.8640       1.814       1.814       1.814       1.814       1.814       1.814       1.814       1.814    
        3.629       3.629       3.629       3.629       3.629       3.629       3.629       3.629       3.629       3.629    
        3.629       3.629       1.814       1.814       1.814       1.814       1.814       1.814       1.814       1.814    
        1.814       1.814       1.814       1.814       1.814       1.814       1.814       1.814       1.814       1.814    
        1.814       1.814       1.814       1.814       1.814       1.814       1.814       1.814       1.814       1.814    
        1.814       1.814       1.814       1.814       1.814       1.814       1.814       1.814       1.814       1.814    
        1.814       1.814       1.814       1.814       1.814       1.814       1.814       1.814       1.814       1.814    
        1.814       1.814       1.814       1.814       1.814       1.814       1.814       1.814       1.814       1.814    
        1.814       1.814       1.814       1.814       1.814       1.814       1.814       1.814       1.814       1.814    
        1.814       1.814       1.814       1.814       1.814       1.814       1.814       1.814       1.814       1.814    
        1.814       1.814       1.814       1.814       1.814       1.814       1.814       1.814       1.814       1.814    
        1.814       1.814       1.814       1.814       1.814       1.814       1.814      0.8640      0.8640      0.8640    
       0.8640      0.8640      0.8640      0.8640      0.8640      0.8640      0.8640      0.8640      0.8640      0.8640    
       0.8640      0.8640      0.8640      0.8640      0.8640      0.8640      0.8640      0.8640      0.8640      0.8640    
       0.8640      0.8640      0.8640      0.8640      0.8640      0.8640      0.8640      0.8640      0.8640      0.8640    
       0.8640      0.8640      0.8640      0.8640      0.8640      0.8640      0.8640      0.8640      0.8640      0.8640    
       0.8640      0.8640      0.8640      0.8640      0.8640      0.8640      0.8640      0.8640      0.8640      0.8640    
       0.8640      0.8640      0.8640      0.8640      0.8640      0.8640    
  75   0.8640      0.8640      0.8640      0.8640      0.8640      0.8640      0.8640      0.8640      0.8640      0.8640    
       0.8640      0.8640       1.814       1.814       1.814       1.814       1.814       1.814       1.814       1.814    
        3.629       3.629       3.629       3.629       3.629       3.629       3.629       3.629       3.629       3.629    
        3.629       3.629       3.629       1.814       1.814       1.814       1.814       1.814       1.814       1.814    
        1.814       1.814       1.814       1.814       1.814       1.814       1.814       1.814       1.814       1.814    
        1.814       1.814       1.814       1.814       1.814       1.814       1.814       1.814       1.814       1.814    
        1.814       1.814       1.814       1.814       1.814       1.814       1.814       1.814       1.814       1.814    
        1.814       1.814       1.814       1.814       1.814       1.814       1.814       1.814       1.814       1.814    
        1.814       1.814       1.814       1.814       1.814       1.814       1.814       1.814       1.814       1.814    
        1.814       1.814       1.814       1.814       1.814       1.814       1.814       1.814       1.814       1.814    
        1.814       1.814       1.814       1.814       1.814       1.814       1.814       1.814       1.814       1.814    
        1.814       1.814       1.814       1.814       1.814       1.814       1.814       1.814       1.814       1.814    
        1.814       1.814       1.814       1.814       1.814       1.814       1.814       1.814      0.8640      0.8640    
       0.8640      0.8640      0.8640      0.8640      0.8640      0.8640      0.8640      0.8640      0.8640      0.8640    
       0.8640      0.8640      0.8640      0.8640      0.8640      0.8640      0.8640      0.8640      0.8640      0.8640    
       0.8640      0.8640      0.8640      0.8640      0.8640      0.8640      0.8640      0.8640      0.8640      0.8640    
       0.8640      0.8640      0.8640      0.8640      0.8640      0.8640      0.8640      0.8640      0.8640      0.8640    
       0.8640      0.8640      0.8640      0.8640      0.8640      0.8640      0.8640      0.8640      0.8640      0.8640    
       0.8640      0.8640      0.8640      0.8640      0.8640      0.8640    
  76   0.8640      0.8640      0.8640      0.8640      0.8640      0.8640      0.8640      0.8640      0.8640      0.8640    
       0.8640      0.8640       1.814       1.814       1.814       1.814       1.814       1.814       1.814       1.814    
        3.629       3.629       3.629       3.629       3.629       3.629       3.629       3.629       3.629       3.629    
        3.629       3.629       3.629       1.814       1.814       1.814       1.814       1.814       1.814       1.814    
        1.814       1.814       1.814       1.814       1.814       1.814       1.814       1.814       1.814       1.814    
        1.814       1.814       1.814       1.814       1.814       1.814       1.814       1.814       1.814       1.814    
        1.814       1.814       1.814       1.814       1.814       1.814       1.814       1.814       1.814       1.814    
        1.814       1.814       1.814       1.814       1.814       1.814       1.814       1.814       1.814       1.814    
        1.814       1.814       1.814       1.814       1.814       1.814       1.814       1.814       1.814       1.814    
        1.814       1.814       1.814       1.814       1.814       1.814       1.814       1.814       1.814       1.814    
        1.814       1.814       1.814       1.814       1.814       1.814       1.814       1.814       1.814       1.814    
        1.814       1.814       1.814       1.814       1.814       1.814       1.814       1.814       1.814       1.814    
        1.814       1.814       1.814       1.814       1.814       1.814       1.814       1.814      0.8640      0.8640    
       0.8640      0.8640      0.8640      0.8640      0.8640      0.8640      0.8640      0.8640      0.8640      0.8640    
       0.8640      0.8640      0.8640      0.8640      0.8640      0.8640      0.8640      0.8640      0.8640      0.8640    
       0.8640      0.8640      0.8640      0.8640      0.8640      0.8640      0.8640      0.8640      0.8640      0.8640    
       0.8640      0.8640      0.8640      0.8640      0.8640      0.8640      0.8640      0.8640      0.8640      0.8640    
       0.8640      0.8640      0.8640      0.8640      0.8640      0.8640      0.8640      0.8640      0.8640      0.8640    
       0.8640      0.8640      0.8640      0.8640      0.8640      0.8640    
  77   0.8640      0.8640      0.8640      0.8640      0.8640      0.8640      0.8640      0.8640      0.8640      0.8640    
       0.8640      0.8640       1.814       1.814       1.814       1.814       1.814       1.814       1.814       1.814    
        1.814       3.629       3.629       3.629       3.629       3.629       3.629       3.629       3.629       3.629    
        3.629       3.629       3.629       1.814       1.814       1.814       1.814       1.814       1.814       1.814    
        1.814       1.814       1.814       1.814       1.814       1.814       1.814       1.814       1.814       1.814    
        1.814       1.814       1.814       1.814       1.814       1.814       1.814       1.814       1.814       1.814    
        1.814       1.814       1.814       1.814       1.814       1.814       1.814       1.814       1.814       1.814    
        1.814       1.814       1.814       1.814       1.814       1.814       1.814       1.814       1.814       1.814    
        1.814       1.814       1.814       1.814       1.814       1.814       1.814       1.814       1.814       1.814    
        1.814       1.814       1.814       1.814       1.814       1.814       1.814       1.814       1.814       1.814    
        1.814       1.814       1.814       1.814       1.814       1.814       1.814       1.814       1.814       1.814    
        1.814       1.814       1.814       1.814       1.814       1.814       1.814       1.814       1.814       1.814    
        1.814       1.814       1.814       1.814       1.814       1.814       1.814       1.814       1.814      0.8640    
       0.8640      0.8640      0.8640      0.8640      0.8640      0.8640      0.8640      0.8640      0.8640      0.8640    
       0.8640      0.8640      0.8640      0.8640      0.8640      0.8640      0.8640      0.8640      0.8640      0.8640    
       0.8640      0.8640      0.8640      0.8640      0.8640      0.8640      0.8640      0.8640      0.8640      0.8640    
       0.8640      0.8640      0.8640      0.8640      0.8640      0.8640      0.8640      0.8640      0.8640      0.8640    
       0.8640      0.8640      0.8640      0.8640      0.8640      0.8640      0.8640      0.8640      0.8640      0.8640    
       0.8640      0.8640      0.8640      0.8640      0.8640      0.8640    
  78   0.8640      0.8640      0.8640      0.8640      0.8640      0.8640      0.8640      0.8640      0.8640      0.8640    
       0.8640      0.8640       1.814       1.814       1.814       1.814       1.814       1.814       1.814       1.814    
        3.629       3.629       3.629       3.629       3.629       3.629       3.629       3.629       3.629       3.629    
        3.629       3.629       3.629       3.629       1.814       1.814       1.814       1.814       1.814       1.814    
        1.814       1.814       1.814       1.814       1.814       1.814       1.814       1.814       1.814       1.814    
        1.814       1.814       1.814       1.814       1.814       1.814       1.814       1.814       1.814       1.814    
        1.814       1.814       1.814       1.814       1.814       1.814       1.814       1.814       1.814       1.814    
        1.814       1.814       1.814       1.814       1.814       1.814       1.814       1.814       1.814       1.814    
        1.814       1.814       1.814       1.814       1.814       1.814       1.814       1.814       1.814       1.814    
        1.814       1.814       1.814       1.814       1.814       1.814       1.814       1.814       1.814       1.814    
        1.814       1.814       1.814       1.814       1.814       1.814       1.814       1.814       1.814       1.814    
        1.814       1.814       1.814       1.814       1.814       1.814       1.814       1.814       1.814       1.814    
        1.814       1.814       1.814       1.814       1.814       1.814       1.814       1.814       1.814       1.814    
       0.8640      0.8640      0.8640      0.8640      0.8640      0.8640      0.8640      0.8640      0.8640      0.8640    
       0.8640      0.8640      0.8640      0.8640      0.8640      0.8640      0.8640      0.8640      0.8640      0.8640    
       0.8640      0.8640      0.8640      0.8640      0.8640      0.8640      0.8640      0.8640      0.8640      0.8640    
       0.8640      0.8640      0.8640      0.8640      0.8640      0.8640      0.8640      0.8640      0.8640      0.8640    
       0.8640      0.8640      0.8640      0.8640      0.8640      0.8640      0.8640      0.8640      0.8640      0.8640    
       0.8640      0.8640      0.8640      0.8640      0.8640      0.8640    
  79   0.8640      0.8640      0.8640      0.8640      0.8640      0.8640      0.8640      0.8640      0.8640      0.8640    
       0.8640      0.8640       1.814       1.814       1.814       1.814       1.814       1.814       1.814       1.814    
        3.629       3.629       3.629       3.629       3.629       3.629       3.629       3.629       3.629       3.629    
        3.629       3.629       3.629       3.629       1.814       1.814       1.814       1.814       1.814       1.814    
        1.814       1.814       1.814       1.814       1.814       1.814       1.814       1.814       1.814       1.814    
        1.814       1.814       1.814       1.814       1.814       1.814       1.814       1.814       1.814       1.814    
        1.814       1.814       1.814       1.814       1.814       1.814       1.814       1.814       1.814       1.814    
        1.814       1.814       1.814       1.814       1.814       1.814       1.814       1.814       1.814       1.814    
        1.814       1.814       1.814       1.814       1.814       1.814       1.814       1.814       1.814       1.814    
        1.814       1.814       1.814       1.814       1.814       1.814       1.814       1.814       1.814       1.814    
        1.814       1.814       1.814       1.814       1.814       1.814       1.814       1.814       1.814       1.814    
        1.814       1.814       1.814       1.814       1.814       1.814       1.814       1.814       1.814       1.814    
        1.814       1.814       1.814       1.814       1.814       1.814       1.814       1.814       1.814       1.814    
        1.814       1.814      0.8640      0.8640      0.8640      0.8640      0.8640      0.8640      0.8640      0.8640    
       0.8640      0.8640      0.8640      0.8640      0.8640      0.8640      0.8640      0.8640      0.8640      0.8640    
       0.8640      0.8640      0.8640      0.8640      0.8640      0.8640      0.8640      0.8640      0.8640      0.8640    
       0.8640      0.8640      0.8640      0.8640      0.8640      0.8640      0.8640      0.8640      0.8640      0.8640    
       0.8640      0.8640      0.8640      0.8640      0.8640      0.8640      0.8640      0.8640      0.8640      0.8640    
       0.8640      0.8640      0.8640      0.8640      0.8640      0.8640    
  80   0.8640      0.8640      0.8640      0.8640      0.8640      0.8640      0.8640      0.8640      0.8640      0.8640    
       0.8640      0.8640      0.8640       1.814       1.814       1.814       1.814       1.814       1.814       1.814    
        3.629       3.629       3.629       3.629       3.629       3.629       3.629       3.629       3.629       3.629    
        3.629       3.629       3.629       1.814       1.814       1.814       1.814       1.814       1.814       1.814    
        1.814       1.814       1.814       1.814       1.814       1.814       1.814       1.814       1.814       1.814    
        1.814       1.814       1.814       1.814       1.814       1.814       1.814       1.814       1.814       1.814    
        1.814       1.814       1.814       1.814       1.814       1.814       1.814       1.814       1.814       1.814    
        1.814       1.814       1.814       1.814       1.814       1.814       1.814       1.814       1.814       1.814    
        1.814       1.814       1.814       1.814       1.814       1.814       1.814       1.814       1.814       1.814    
        1.814       1.814       1.814       1.814       1.814       1.814       1.814       1.814       1.814       1.814    
        1.814       1.814       1.814       1.814       1.814       1.814       1.814       1.814       1.814       1.814    
        1.814       1.814       1.814       1.814       1.814       1.814       1.814       1.814       1.814       1.814    
        1.814       1.814       1.814       1.814       1.814       1.814       1.814       1.814       1.814       1.814    
        1.814       1.814      0.8640      0.8640      0.8640      0.8640      0.8640      0.8640      0.8640      0.8640    
       0.8640      0.8640      0.8640      0.8640      0.8640      0.8640      0.8640      0.8640      0.8640      0.8640    
       0.8640      0.8640      0.8640      0.8640      0.8640      0.8640      0.8640      0.8640      0.8640      0.8640    
       0.8640      0.8640      0.8640      0.8640      0.8640      0.8640      0.8640      0.8640      0.8640      0.8640    
       0.8640      0.8640      0.8640      0.8640      0.8640      0.8640      0.8640      0.8640      0.8640      0.8640    
       0.8640      0.8640      0.8640      0.8640      0.8640      0.8640    
  81   0.8640      0.8640      0.8640      0.8640      0.8640      0.8640      0.8640      0.8640      0.8640      0.8640    
       0.8640      0.8640      0.8640       1.814       1.814       1.814       1.814       1.814       1.814       3.629    
        3.629       3.629       3.629       3.629       3.629       3.629       3.629       3.629       3.629       3.629    
        3.629       3.629       3.629       1.814       1.814       1.814       1.814       1.814       1.814       1.814    
        1.814       1.814       1.814       1.814       1.814       1.814       1.814       1.814       1.814       1.814    
        1.814       1.814       1.814       1.814       1.814       1.814       1.814       1.814       1.814       1.814    
        1.814       1.814       1.814       1.814       1.814       1.814       1.814       1.814       1.814       1.814    
        1.814       1.814       1.814       1.814       1.814       1.814       1.814       1.814       1.814       1.814    
        1.814       1.814       1.814       1.814       1.814       1.814       1.814       1.814       1.814       1.814    
        1.814       1.814       1.814       1.814       1.814       1.814       1.814       1.814       1.814       1.814    
        1.814       1.814       1.814       1.814       1.814       1.814       1.814       1.814       1.814       1.814    
        1.814       1.814       1.814       1.814       1.814       1.814       1.814       1.814       1.814       1.814    
        1.814       1.814       1.814       1.814       1.814       1.814       1.814       1.814       1.814       1.814    
        1.814       1.814       1.814      0.8640      0.8640      0.8640      0.8640      0.8640      0.8640      0.8640    
       0.8640      0.8640      0.8640      0.8640      0.8640      0.8640      0.8640      0.8640      0.8640      0.8640    
       0.8640      0.8640      0.8640      0.8640      0.8640      0.8640      0.8640      0.8640      0.8640      0.8640    
       0.8640      0.8640      0.8640      0.8640      0.8640      0.8640      0.8640      0.8640      0.8640      0.8640    
       0.8640      0.8640      0.8640      0.8640      0.8640      0.8640      0.8640      0.8640      0.8640      0.8640    
       0.8640      0.8640      0.8640      0.8640      0.8640      0.8640    
  82   0.8640      0.8640      0.8640      0.8640      0.8640      0.8640      0.8640      0.8640      0.8640      0.8640    
       0.8640      0.8640       1.814       1.814       1.814       1.814       1.814       1.814       1.814       3.629    
        3.629       3.629       3.629       3.629       3.629       3.629       3.629       3.629       3.629       3.629    
        3.629       3.629       3.629       1.814       1.814       1.814       1.814       1.814       1.814       1.814    
        1.814       1.814       1.814       1.814       1.814       1.814       1.814       1.814       1.814       1.814    
        1.814       1.814       1.814       1.814       1.814       1.814       1.814       1.814       1.814       1.814    
        1.814       1.814       1.814       1.814       1.814       1.814       1.814       1.814       1.814       1.814    
        1.814       1.814       1.814       1.814       1.814       1.814       1.814       1.814       1.814       1.814    
        1.814       1.814       1.814       1.814       1.814       1.814       1.814       1.814       1.814       1.814    
        1.814       1.814       1.814       1.814       1.814       1.814       1.814       1.814       1.814       1.814    
        1.814       1.814       1.814       1.814       1.814       1.814       1.814       1.814       1.814       1.814    
        1.814       1.814       1.814       1.814       1.814       1.814       1.814       1.814       1.814       1.814    
        1.814       1.814       1.814       1.814       1.814       1.814       1.814       1.814       1.814       1.814    
        1.814       1.814       1.814       1.814      0.8640      0.8640      0.8640      0.8640      0.8640      0.8640    
       0.8640      0.8640      0.8640      0.8640      0.8640      0.8640      0.8640      0.8640      0.8640      0.8640    
       0.8640      0.8640      0.8640      0.8640      0.8640      0.8640      0.8640      0.8640      0.8640      0.8640    
       0.8640      0.8640      0.8640      0.8640      0.8640      0.8640      0.8640      0.8640      0.8640      0.8640    
       0.8640      0.8640      0.8640      0.8640      0.8640      0.8640      0.8640      0.8640      0.8640      0.8640    
       0.8640      0.8640      0.8640      0.8640      0.8640      0.8640    
  83   0.8640      0.8640      0.8640      0.8640      0.8640      0.8640      0.8640      0.8640      0.8640      0.8640    
       0.8640      0.8640       1.814       1.814       1.814       1.814       1.814       1.814       1.814       1.814    
        3.629       3.629       3.629       3.629       3.629       3.629       3.629       3.629       3.629       3.629    
        3.629       3.629       3.629       3.629       3.629       1.814       1.814       1.814       1.814       1.814    
        1.814       1.814       1.814       1.814       1.814       1.814       1.814       1.814       1.814       1.814    
        1.814       1.814       1.814       1.814       1.814       1.814       1.814       1.814       1.814       1.814    
        1.814       1.814       1.814       1.814       1.814       1.814       1.814       1.814       1.814       1.814    
        1.814       1.814       1.814       1.814       1.814       1.814       1.814       1.814       1.814       1.814    
        1.814       1.814       1.814       1.814       1.814       1.814       1.814       1.814       1.814       1.814    
        1.814       1.814       1.814       1.814       1.814       1.814       1.814       1.814       1.814       1.814    
        1.814       1.814       1.814       1.814       1.814       1.814       1.814       1.814       1.814       1.814    
        1.814       1.814       1.814       1.814       1.814       1.814       1.814       1.814       1.814       1.814    
        1.814       1.814       1.814       1.814       1.814       1.814       1.814       1.814       1.814       1.814    
        1.814       1.814       1.814       1.814       1.814       1.814      0.8640      0.8640      0.8640      0.8640    
       0.8640      0.8640      0.8640      0.8640      0.8640      0.8640      0.8640      0.8640      0.8640      0.8640    
       0.8640      0.8640      0.8640      0.8640      0.8640      0.8640      0.8640      0.8640      0.8640      0.8640    
       0.8640      0.8640      0.8640      0.8640      0.8640      0.8640      0.8640      0.8640      0.8640      0.8640    
       0.8640      0.8640      0.8640      0.8640      0.8640      0.8640      0.8640      0.8640      0.8640      0.8640    
       0.8640      0.8640      0.8640      0.8640      0.8640      0.8640    
  84   0.8640      0.8640      0.8640      0.8640      0.8640      0.8640      0.8640      0.8640      0.8640      0.8640    
       0.8640      0.8640       1.814       1.814       1.814       1.814       1.814       1.814       1.814       1.814    
        3.629       3.629       3.629       3.629       3.629       3.629       3.629       3.629       3.629       3.629    
        3.629       3.629       3.629       3.629       3.629       1.814       1.814       1.814       1.814       1.814    
        1.814       1.814       1.814       1.814       1.814       1.814       1.814       1.814       1.814       1.814    
        1.814       1.814       1.814       1.814       1.814       1.814       1.814       1.814       1.814       1.814    
        1.814       1.814       1.814       1.814       1.814       1.814       1.814       1.814       1.814       1.814    
        1.814       1.814       1.814       1.814       1.814       1.814       1.814       1.814       1.814       1.814    
        1.814       1.814       1.814       1.814       1.814       1.814       1.814       1.814       1.814       1.814    
        1.814       1.814       1.814       1.814       1.814       1.814       1.814       1.814       1.814       1.814    
        1.814       1.814       1.814       1.814       1.814       1.814       1.814       1.814       1.814       1.814    
        1.814       1.814       1.814       1.814       1.814       1.814       1.814       1.814       1.814       1.814    
        1.814       1.814       1.814       1.814       1.814       1.814       1.814       1.814       1.814       1.814    
        1.814       1.814       1.814       1.814       1.814       1.814       1.814      0.8640      0.8640      0.8640    
       0.8640      0.8640      0.8640      0.8640      0.8640      0.8640      0.8640      0.8640      0.8640      0.8640    
       0.8640      0.8640      0.8640      0.8640      0.8640      0.8640      0.8640      0.8640      0.8640      0.8640    
       0.8640      0.8640      0.8640      0.8640      0.8640      0.8640      0.8640      0.8640      0.8640      0.8640    
       0.8640      0.8640      0.8640      0.8640      0.8640      0.8640      0.8640      0.8640      0.8640      0.8640    
       0.8640      0.8640      0.8640      0.8640      0.8640      0.8640    
  85   0.8640      0.8640      0.8640      0.8640      0.8640      0.8640      0.8640      0.8640      0.8640      0.8640    
       0.8640      0.8640       1.814       1.814       1.814       1.814       1.814       1.814       1.814       1.814    
        3.629       3.629       3.629       3.629       3.629       3.629       3.629       3.629       3.629       3.629    
        3.629       3.629       3.629       3.629       3.629       1.814       1.814       1.814       1.814       1.814    
        1.814       1.814       1.814       1.814       1.814       1.814       1.814       1.814       1.814       1.814    
        1.814       1.814       1.814       1.814       1.814       1.814       1.814       1.814       1.814       1.814    
        1.814       1.814       1.814       1.814       1.814       1.814       1.814       1.814       1.814       1.814    
        1.814       1.814       1.814       1.814       1.814       1.814       1.814       1.814       1.814       1.814    
        1.814       1.814       1.814       1.814       1.814       1.814       1.814       1.814       1.814       1.814    
        1.814       1.814       1.814       1.814       1.814       1.814       1.814       1.814       1.814       1.814    
        1.814       1.814       1.814       1.814       1.814       1.814       1.814       1.814       1.814       1.814    
        1.814       1.814       1.814       1.814       1.814       1.814       1.814       1.814       1.814       1.814    
        1.814       1.814       1.814       1.814       1.814       1.814       1.814       1.814       1.814       1.814    
        1.814       1.814       1.814       1.814       1.814       1.814       1.814       1.814      0.8640      0.8640    
       0.8640      0.8640      0.8640      0.8640      0.8640      0.8640      0.8640      0.8640      0.8640      0.8640    
       0.8640      0.8640      0.8640      0.8640      0.8640      0.8640      0.8640      0.8640      0.8640      0.8640    
       0.8640      0.8640      0.8640      0.8640      0.8640      0.8640      0.8640      0.8640      0.8640      0.8640    
       0.8640      0.8640      0.8640      0.8640      0.8640      0.8640      0.8640      0.8640      0.8640      0.8640    
       0.8640      0.8640      0.8640      0.8640      0.8640      0.8640    
  86   0.8640      0.8640      0.8640      0.8640      0.8640      0.8640      0.8640      0.8640      0.8640      0.8640    
       0.8640      0.8640       1.814       1.814       1.814       1.814       1.814       1.814       1.814       1.814    
        3.629       3.629       3.629       3.629       3.629       3.629       3.629       3.629       3.629       3.629    
        3.629       3.629       3.629       3.629       3.629       3.629       1.814       1.814       1.814       1.814    
        1.814       1.814       1.814       1.814       1.814       1.814       1.814       1.814       1.814       1.814    
        1.814       1.814       1.814       1.814       1.814       1.814       1.814       1.814       1.814       1.814    
        1.814       1.814       1.814       1.814       1.814       1.814       1.814       1.814       1.814       1.814    
        1.814       1.814       1.814       1.814       1.814       1.814       1.814       1.814       1.814       1.814    
        1.814       1.814       1.814       1.814       1.814       1.814       1.814       1.814       1.814       1.814    
        1.814       1.814       1.814       1.814       1.814       1.814       1.814       1.814       1.814       1.814    
        1.814       1.814       1.814       1.814       1.814       1.814       1.814       1.814       1.814       1.814    
        1.814       1.814       1.814       1.814       1.814       1.814       1.814       1.814       1.814       1.814    
        1.814       1.814       1.814       1.814       1.814       1.814       1.814       1.814       1.814       1.814    
        1.814       1.814       1.814       1.814       1.814       1.814       1.814       1.814       1.814       1.814    
       0.8640      0.8640      0.8640      0.8640      0.8640      0.8640      0.8640      0.8640      0.8640      0.8640    
       0.8640      0.8640      0.8640      0.8640      0.8640      0.8640      0.8640      0.8640      0.8640      0.8640    
       0.8640      0.8640      0.8640      0.8640      0.8640      0.8640      0.8640      0.8640      0.8640      0.8640    
       0.8640      0.8640      0.8640      0.8640      0.8640      0.8640      0.8640      0.8640      0.8640      0.8640    
       0.8640      0.8640      0.8640      0.8640      0.8640      0.8640    
  87   0.8640      0.8640      0.8640      0.8640      0.8640      0.8640      0.8640      0.8640      0.8640      0.8640    
       0.8640      0.8640       1.814       1.814       1.814       1.814       1.814       1.814       1.814       1.814    
        3.629       3.629       3.629       3.629       3.629       3.629       3.629       3.629       3.629       3.629    
        3.629       3.629       3.629       3.629       3.629       3.629       1.814       1.814       1.814       1.814    
        1.814       1.814       1.814       1.814       1.814       1.814       1.814       1.814       1.814       1.814    
        1.814       1.814       1.814       1.814       1.814       1.814       1.814       1.814       1.814       1.814    
        1.814       1.814       1.814       1.814       1.814       1.814       1.814       1.814       1.814       1.814    
        1.814       1.814       1.814       1.814       1.814       1.814       1.814       1.814       1.814       1.814    
        1.814       1.814       1.814       1.814       1.814       1.814       1.814       1.814       1.814       1.814    
        1.814       1.814       1.814       1.814       1.814       1.814       1.814       1.814       1.814       1.814    
        1.814       1.814       1.814       1.814       1.814       1.814       1.814       1.814       1.814       1.814    
        1.814       1.814       1.814       1.814       1.814       1.814       1.814       1.814       1.814       1.814    
        1.814       1.814       1.814       1.814       1.814       1.814       1.814       1.814       1.814       1.814    
        1.814       1.814       1.814       1.814       1.814       1.814       1.814       1.814       1.814       1.814    
        1.814      0.8640      0.8640      0.8640      0.8640      0.8640      0.8640      0.8640      0.8640      0.8640    
       0.8640      0.8640      0.8640      0.8640      0.8640      0.8640      0.8640      0.8640      0.8640      0.8640    
       0.8640      0.8640      0.8640      0.8640      0.8640      0.8640      0.8640      0.8640      0.8640      0.8640    
       0.8640      0.8640      0.8640      0.8640      0.8640      0.8640      0.8640      0.8640      0.8640      0.8640    
       0.8640      0.8640      0.8640      0.8640      0.8640      0.8640    
  88   0.8640      0.8640      0.8640      0.8640      0.8640      0.8640      0.8640      0.8640      0.8640      0.8640    
       0.8640      0.8640       1.814       1.814       1.814       1.814       1.814       1.814       1.814       1.814    
        3.629       3.629       3.629       3.629       3.629       3.629       3.629       3.629       3.629       3.629    
        3.629       3.629       3.629       3.629       3.629       3.629       1.814       1.814       1.814       1.814    
        1.814       1.814       1.814       1.814       1.814       1.814       1.814       1.814       1.814       1.814    
        1.814       1.814       1.814       1.814       1.814       1.814       1.814       1.814       1.814       1.814    
        1.814       1.814       1.814       1.814       1.814       1.814       1.814       1.814       1.814       1.814    
        1.814       1.814       1.814       1.814       1.814       1.814       1.814       1.814       1.814       1.814    
        1.814       1.814       1.814       1.814       1.814       1.814       1.814       1.814       1.814       1.814    
        1.814       1.814       1.814       1.814       1.814       1.814       1.814       1.814       1.814       1.814    
        1.814       1.814       1.814       1.814       1.814       1.814       1.814       1.814       1.814       1.814    
        1.814       1.814       1.814       1.814       1.814       1.814       1.814       1.814       1.814       1.814    
        1.814       1.814       1.814       1.814       1.814       1.814       1.814       1.814       1.814       1.814    
        1.814       1.814       1.814       1.814       1.814       1.814       1.814       1.814       1.814       1.814    
        1.814       1.814       1.814      0.8640      0.8640      0.8640      0.8640      0.8640      0.8640      0.8640    
       0.8640      0.8640      0.8640      0.8640      0.8640      0.8640      0.8640      0.8640      0.8640      0.8640    
       0.8640      0.8640      0.8640      0.8640      0.8640      0.8640      0.8640      0.8640      0.8640      0.8640    
       0.8640      0.8640      0.8640      0.8640      0.8640      0.8640      0.8640      0.8640      0.8640      0.8640    
       0.8640      0.8640      0.8640      0.8640      0.8640      0.8640    
  89   0.8640      0.8640      0.8640      0.8640      0.8640      0.8640      0.8640      0.8640      0.8640      0.8640    
       0.8640      0.8640       1.814       1.814       1.814       1.814       1.814       1.814       1.814       1.814    
        3.629       3.629       3.629       3.629       3.629       3.629       3.629       3.629       3.629       3.629    
        3.629       3.629       3.629       3.629       3.629       3.629       1.814       1.814       1.814       1.814    
        1.814       1.814       1.814       1.814       1.814       1.814       1.814       1.814       1.814       1.814    
        1.814       1.814       1.814       1.814       1.814       1.814       1.814       1.814       1.814       1.814    
        1.814       1.814       1.814       1.814       1.814       1.814       1.814       1.814       1.814       1.814    
        1.814       1.814       1.814       1.814       1.814       1.814       1.814       1.814       1.814       1.814    
        1.814       1.814       1.814       1.814       1.814       1.814       1.814       1.814       1.814       1.814    
        1.814       1.814       1.814       1.814       1.814       1.814       1.814       1.814       1.814       1.814    
        1.814       1.814       1.814       1.814       1.814       1.814       1.814       1.814       1.814       1.814    
        1.814       1.814       1.814       1.814       1.814       1.814       1.814       1.814       1.814       1.814    
        1.814       1.814       1.814       1.814       1.814       1.814       1.814       1.814       1.814       1.814    
        1.814       1.814       1.814       1.814       1.814       1.814       1.814       1.814       1.814       1.814    
        1.814       1.814       1.814       1.814      0.8640      0.8640      0.8640      0.8640      0.8640      0.8640    
       0.8640      0.8640      0.8640      0.8640      0.8640      0.8640      0.8640      0.8640      0.8640      0.8640    
       0.8640      0.8640      0.8640      0.8640      0.8640      0.8640      0.8640      0.8640      0.8640      0.8640    
       0.8640      0.8640      0.8640      0.8640      0.8640      0.8640      0.8640      0.8640      0.8640      0.8640    
       0.8640      0.8640      0.8640      0.8640      0.8640      0.8640    

   HORIZ. ANI. (COL./ROW) =   1.00000     FOR LAYER   1



                VERTICAL HYD. COND. FOR LAYER   1
 READING ON UNIT  134 WITH FORMAT: (FREE)              

            1           2           3           4           5           6           7           8           9          10
           11          12          13          14          15          16          17          18          19          20
           21          22          23          24          25          26          27          28          29          30
           31          32          33          34          35          36          37          38          39          40
           41          42          43          44          45          46          47          48          49          50
           51          52          53          54          55          56          57          58          59          60
           61          62          63          64          65          66          67          68          69          70
           71          72          73          74          75          76          77          78          79          80
           81          82          83          84          85          86          87          88          89          90
           91          92          93          94          95          96          97          98          99         100
          101         102         103         104         105         106         107         108         109         110
          111         112         113         114         115         116         117         118         119         120
          121         122         123         124         125         126         127         128         129         130
          131         132         133         134         135         136         137         138         139         140
          141         142         143         144         145         146         147         148         149         150
          151         152         153         154         155         156         157         158         159         160
          161         162         163         164         165         166         167         168         169         170
          171         172         173         174         175         176         177         178         179         180
          181         182         183         184         185         186
 ........................................................................................................................
   1   0.1814      0.1814      0.1814      0.1814      0.1814      0.3629      0.3629      0.3629      0.3629      0.3629    
       0.1814      0.1814      0.1814      0.1814      0.1814      0.1814      0.1814      0.1814      0.1814      0.1814    
       0.1814      0.1814      0.1814      0.1814      0.1814      0.1814      0.1814      0.1814      0.1814      0.1814    
       0.1814      0.1814      0.1814      0.1814      0.1814      0.1814      0.1814      0.1814      0.1814      0.1814    
       0.1814      0.1814      0.1814      0.1814      0.1814      0.1814      0.1814      0.1814      0.1814      0.1814    
       0.1814      0.1814      0.1814      0.1814      0.1814      0.1814      0.1814      0.1814      0.1814      0.1814    
       0.1814      0.1814      0.1814      0.1814      0.1814      0.1814      0.1814      0.1814      0.1814      0.1814    
       0.1814      0.1814      0.1814      0.1814      0.1814      0.1814      0.1814      0.1814      0.1814      0.1814    
       0.1814      0.1814      0.1814      0.1814      0.1814      0.1814      0.1814      0.1814      0.1814      0.1814    
       0.1814      0.1814      0.1814      0.1814      0.1814      0.1814      0.1814      8.6400E-02  8.6400E-02  8.6400E-02
       8.6400E-02  8.6400E-02  8.6400E-02  8.6400E-02  8.6400E-02  8.6400E-02  8.6400E-02  8.6400E-02  8.6400E-02  8.6400E-02
       8.6400E-02  8.6400E-02  8.6400E-02  8.6400E-02  8.6400E-02  8.6400E-02  8.6400E-02  8.6400E-02  8.6400E-02  8.6400E-02
       8.6400E-02  8.6400E-02  8.6400E-02  8.6400E-02  8.6400E-02  8.6400E-02  8.6400E-02  8.6400E-02  8.6400E-02  8.6400E-02
       8.6400E-02  8.6400E-02  8.6400E-02  8.6400E-02  8.6400E-02  8.6400E-02  8.6400E-02  8.6400E-02  8.6400E-02  8.6400E-02
       8.6400E-02  8.6400E-02  8.6400E-02  8.6400E-02  8.6400E-02  8.6400E-02  8.6400E-02  8.6400E-02  8.6400E-02  8.6400E-02
       8.6400E-02  8.6400E-02  8.6400E-02  8.6400E-02  8.6400E-02  8.6400E-02  8.6400E-02  8.6400E-02  8.6400E-02  8.6400E-02
       8.6400E-02  8.6400E-02  8.6400E-02  8.6400E-02  8.6400E-02  8.6400E-02  8.6400E-02  8.6400E-02  8.6400E-02  8.6400E-02
       8.6400E-02  8.6400E-02  8.6400E-02  8.6400E-02  8.6400E-02  8.6400E-02  8.6400E-02  8.6400E-02  8.6400E-02  8.6400E-02
       8.6400E-02  8.6400E-02  8.6400E-02  8.6400E-02  8.6400E-02  8.6400E-02
   2   0.1814      0.1814      0.1814      0.1814      0.1814      0.3629      0.3629      0.3629      0.3629      0.3629    
       0.1814      0.1814      0.1814      0.1814      0.1814      0.1814      0.1814      0.1814      0.1814      0.1814    
       0.1814      0.1814      0.1814      0.1814      0.1814      0.1814      0.1814      0.1814      0.1814      0.1814    
       0.1814      0.1814      0.1814      0.1814      0.1814      0.1814      0.1814      0.1814      0.1814      0.1814    
       0.1814      0.1814      0.1814      0.1814      0.1814      0.1814      0.1814      0.1814      0.1814      0.1814    
       0.1814      0.1814      0.1814      0.1814      0.1814      0.1814      0.1814      0.1814      0.1814      0.1814    
       0.1814      0.1814      0.1814      0.1814      0.1814      0.1814      0.1814      0.1814      0.1814      0.1814    
       0.1814      0.1814      0.1814      0.1814      0.1814      0.1814      0.1814      0.1814      0.1814      0.1814    
       0.1814      0.1814      0.1814      0.1814      0.1814      0.1814      0.1814      0.1814      0.1814      0.1814    
       0.1814      0.1814      0.1814      0.1814      0.1814      0.1814      0.1814      0.1814      0.1814      0.1814    
       0.1814      0.1814      0.1814      0.1814      8.6400E-02  8.6400E-02  8.6400E-02  8.6400E-02  8.6400E-02  8.6400E-02
       8.6400E-02  8.6400E-02  8.6400E-02  8.6400E-02  8.6400E-02  8.6400E-02  8.6400E-02  8.6400E-02  8.6400E-02  8.6400E-02
       8.6400E-02  8.6400E-02  8.6400E-02  8.6400E-02  8.6400E-02  8.6400E-02  8.6400E-02  8.6400E-02  8.6400E-02  8.6400E-02
       8.6400E-02  8.6400E-02  8.6400E-02  8.6400E-02  8.6400E-02  8.6400E-02  8.6400E-02  8.6400E-02  8.6400E-02  8.6400E-02
       8.6400E-02  8.6400E-02  8.6400E-02  8.6400E-02  8.6400E-02  8.6400E-02  8.6400E-02  8.6400E-02  8.6400E-02  8.6400E-02
       8.6400E-02  8.6400E-02  8.6400E-02  8.6400E-02  8.6400E-02  8.6400E-02  8.6400E-02  8.6400E-02  8.6400E-02  8.6400E-02
       8.6400E-02  8.6400E-02  8.6400E-02  8.6400E-02  8.6400E-02  8.6400E-02  8.6400E-02  8.6400E-02  8.6400E-02  8.6400E-02
       8.6400E-02  8.6400E-02  8.6400E-02  8.6400E-02  8.6400E-02  8.6400E-02  8.6400E-02  8.6400E-02  8.6400E-02  8.6400E-02
       8.6400E-02  8.6400E-02  8.6400E-02  8.6400E-02  8.6400E-02  8.6400E-02
   3   0.1814      0.1814      0.1814      0.1814      0.1814      0.3629      0.3629      0.3629      0.3629      0.3629    
       0.1814      0.1814      0.1814      0.1814      0.1814      0.1814      0.1814      0.1814      0.1814      0.1814    
       0.1814      0.1814      0.1814      0.1814      0.1814      0.1814      0.1814      0.1814      0.1814      0.1814    
       0.1814      0.1814      0.1814      0.1814      0.1814      0.1814      0.1814      0.1814      0.1814      0.1814    
       0.1814      0.1814      0.1814      0.1814      0.1814      0.1814      0.1814      0.1814      0.1814      0.1814    
       0.1814      0.1814      0.1814      0.1814      0.1814      0.1814      0.1814      0.1814      0.1814      0.1814    
       0.1814      0.1814      0.1814      0.1814      0.1814      0.1814      0.1814      0.1814      0.1814      0.1814    
       0.1814      0.1814      0.1814      0.1814      0.1814      0.1814      0.1814      0.1814      0.1814      0.1814    
       0.1814      0.1814      0.1814      0.1814      0.1814      0.1814      0.1814      0.1814      0.1814      0.1814    
       0.1814      0.1814      0.1814      0.1814      0.1814      0.1814      0.1814      0.1814      0.1814      0.1814    
       0.1814      0.1814      0.1814      0.1814      0.1814      0.1814      0.1814      0.1814      0.1814      0.1814    
       0.1814      0.1814      8.6400E-02  8.6400E-02  8.6400E-02  8.6400E-02  8.6400E-02  8.6400E-02  8.6400E-02  8.6400E-02
       8.6400E-02  8.6400E-02  8.6400E-02  8.6400E-02  8.6400E-02  8.6400E-02  8.6400E-02  8.6400E-02  8.6400E-02  8.6400E-02
       8.6400E-02  8.6400E-02  8.6400E-02  8.6400E-02  8.6400E-02  8.6400E-02  8.6400E-02  8.6400E-02  8.6400E-02  8.6400E-02
       8.6400E-02  8.6400E-02  8.6400E-02  8.6400E-02  8.6400E-02  8.6400E-02  8.6400E-02  8.6400E-02  8.6400E-02  8.6400E-02
       8.6400E-02  8.6400E-02  8.6400E-02  8.6400E-02  8.6400E-02  8.6400E-02  8.6400E-02  8.6400E-02  8.6400E-02  8.6400E-02
       8.6400E-02  8.6400E-02  8.6400E-02  8.6400E-02  8.6400E-02  8.6400E-02  8.6400E-02  8.6400E-02  8.6400E-02  8.6400E-02
       8.6400E-02  8.6400E-02  8.6400E-02  8.6400E-02  8.6400E-02  8.6400E-02  8.6400E-02  8.6400E-02  8.6400E-02  8.6400E-02
       8.6400E-02  8.6400E-02  8.6400E-02  0.1814      0.1814      0.1814    
   4   0.1814      0.1814      0.1814      0.1814      0.1814      0.3629      0.3629      0.3629      0.3629      0.3629    
       0.1814      0.1814      0.1814      0.1814      0.1814      0.1814      0.1814      0.1814      0.1814      0.1814    
       0.1814      0.1814      0.1814      0.1814      0.1814      0.1814      0.1814      0.1814      0.1814      0.1814    
       0.1814      0.1814      0.1814      0.1814      0.1814      0.1814      0.1814      0.1814      0.1814      0.1814    
       0.1814      0.1814      0.1814      0.1814      0.1814      0.1814      0.1814      0.1814      0.1814      0.1814    
       0.1814      0.1814      0.1814      0.1814      0.1814      0.1814      0.1814      0.1814      0.1814      0.1814    
       0.1814      0.1814      0.1814      0.1814      0.1814      0.1814      0.1814      0.1814      0.1814      0.1814    
       0.1814      0.1814      0.1814      0.1814      0.1814      0.1814      0.1814      0.1814      0.1814      0.1814    
       0.1814      0.1814      0.1814      0.1814      0.1814      0.1814      0.1814      0.1814      0.1814      0.1814    
       0.1814      0.1814      0.1814      0.1814      0.1814      0.1814      0.1814      0.1814      0.1814      0.1814    
       0.1814      0.1814      0.1814      0.1814      0.1814      0.1814      0.1814      0.1814      0.1814      0.1814    
       0.1814      0.1814      0.1814      0.1814      0.1814      0.1814      0.1814      0.1814      0.1814      0.1814    
       0.1814      0.1814      0.1814      0.1814      0.1814      0.1814      0.1814      0.1814      0.1814      0.1814    
       0.1814      0.1814      0.1814      0.1814      8.6400E-02  8.6400E-02  8.6400E-02  8.6400E-02  8.6400E-02  8.6400E-02
       8.6400E-02  8.6400E-02  8.6400E-02  8.6400E-02  8.6400E-02  8.6400E-02  8.6400E-02  8.6400E-02  8.6400E-02  8.6400E-02
       8.6400E-02  8.6400E-02  8.6400E-02  8.6400E-02  8.6400E-02  8.6400E-02  8.6400E-02  8.6400E-02  8.6400E-02  8.6400E-02
       8.6400E-02  8.6400E-02  8.6400E-02  8.6400E-02  8.6400E-02  8.6400E-02  8.6400E-02  8.6400E-02  8.6400E-02  8.6400E-02
       8.6400E-02  8.6400E-02  8.6400E-02  0.1814      0.1814      0.1814      0.1814      0.1814      0.1814      0.1814    
       0.1814      0.1814      0.1814      0.1814      0.1814      0.1814    
   5   0.1814      0.1814      0.1814      0.1814      0.1814      0.3629      0.3629      0.3629      0.3629      0.3629    
       0.1814      0.1814      0.1814      0.1814      0.1814      0.1814      0.1814      0.1814      0.1814      0.1814    
       0.1814      0.1814      0.1814      0.1814      0.1814      0.1814      0.1814      0.1814      0.1814      0.1814    
       0.1814      0.1814      0.1814      0.1814      0.1814      0.1814      0.1814      0.1814      0.1814      0.1814    
       0.1814      0.1814      0.1814      0.1814      0.1814      0.1814      0.1814      0.1814      0.1814      0.1814    
       0.1814      0.1814      0.1814      0.1814      0.1814      0.1814      0.1814      0.1814      0.1814      0.1814    
       0.1814      0.1814      0.1814      0.1814      0.1814      0.1814      0.1814      0.1814      0.1814      0.1814    
       0.1814      0.1814      0.1814      0.1814      0.1814      0.1814      0.1814      0.1814      0.1814      0.1814    
       0.1814      0.1814      0.1814      0.1814      0.1814      0.1814      0.1814      0.1814      0.1814      0.1814    
       0.1814      0.1814      0.1814      0.1814      0.1814      0.1814      0.1814      0.1814      0.1814      0.1814    
       0.1814      0.1814      0.1814      0.1814      0.1814      0.1814      0.1814      0.1814      0.1814      0.1814    
       0.1814      0.1814      0.1814      0.1814      0.1814      0.1814      0.1814      0.1814      0.1814      0.1814    
       0.1814      0.1814      0.1814      0.1814      0.1814      0.1814      0.1814      0.1814      0.1814      0.1814    
       0.1814      0.1814      0.1814      0.1814      0.1814      0.1814      0.1814      0.1814      0.1814      0.1814    
       0.1814      0.1814      0.1814      0.1814      0.1814      0.1814      0.1814      0.1814      0.1814      0.1814    
       0.1814      0.1814      0.1814      0.1814      0.1814      0.1814      0.1814      0.1814      0.1814      0.1814    
       0.1814      0.1814      0.1814      0.1814      0.1814      0.1814      0.1814      0.1814      0.1814      0.1814    
       0.1814      0.1814      0.1814      0.1814      0.1814      0.1814      0.1814      0.1814      0.1814      0.1814    
       0.1814      0.1814      0.1814      0.1814      0.1814      0.1814    
   6   0.1814      0.1814      0.1814      0.1814      0.1814      0.1814      0.3629      0.3629      0.3629      0.3629    
       0.1814      0.1814      0.1814      0.1814      0.1814      0.1814      0.1814      0.1814      0.1814      0.1814    
       0.1814      0.1814      0.1814      0.1814      0.1814      0.1814      0.1814      0.1814      0.1814      0.1814    
       0.1814      0.1814      0.1814      0.1814      0.1814      0.1814      0.1814      0.1814      0.1814      0.1814    
       0.1814      0.1814      0.1814      0.1814      0.1814      0.1814      0.1814      0.1814      0.1814      0.1814    
       0.1814      0.1814      0.1814      0.1814      0.1814      0.1814      0.1814      0.1814      0.1814      0.1814    
       0.1814      0.1814      0.1814      0.1814      0.1814      0.1814      0.1814      0.1814      0.1814      0.1814    
       0.1814      0.1814      0.1814      0.1814      0.1814      0.1814      0.1814      0.1814      0.1814      0.1814    
       0.1814      0.1814      0.1814      0.1814      0.1814      0.1814      0.1814      0.1814      0.1814      0.1814    
       0.1814      0.1814      0.1814      0.1814      0.1814      0.1814      0.1814      0.1814      0.1814      0.1814    
       0.1814      0.1814      0.1814      0.1814      0.1814      0.1814      0.1814      0.1814      0.1814      0.1814    
       0.1814      0.1814      0.1814      0.1814      0.1814      0.1814      0.1814      0.1814      0.1814      0.1814    
       0.1814      0.1814      0.1814      0.1814      0.1814      0.1814      0.1814      0.1814      0.1814      0.1814    
       0.1814      0.1814      0.1814      0.1814      0.1814      0.1814      0.1814      0.1814      0.1814      0.1814    
       0.1814      0.1814      0.1814      0.1814      0.1814      0.1814      0.1814      0.1814      0.1814      0.1814    
       0.1814      0.1814      0.1814      0.1814      0.1814      0.1814      0.1814      0.1814      0.1814      0.1814    
       0.1814      0.1814      0.1814      0.1814      0.1814      0.1814      0.1814      0.1814      0.1814      0.1814    
       0.1814      0.1814      0.1814      0.1814      0.1814      0.1814      0.1814      0.1814      0.1814      0.1814    
       0.1814      0.1814      0.1814      0.1814      0.1814      0.1814    
   7   0.1814      0.1814      0.1814      0.1814      0.1814      0.1814      0.3629      0.3629      0.3629      0.3629    
       0.3629      0.1814      0.1814      0.1814      0.1814      0.1814      0.1814      0.1814      0.1814      0.1814    
       0.1814      0.1814      0.1814      0.1814      0.1814      0.1814      0.1814      0.1814      0.1814      0.1814    
       0.1814      0.1814      0.1814      0.1814      0.1814      0.1814      0.1814      0.1814      0.1814      0.1814    
       0.1814      0.1814      0.1814      0.1814      0.1814      0.1814      0.1814      0.1814      0.1814      0.1814    
       0.1814      0.1814      0.1814      0.1814      0.1814      0.1814      0.1814      0.1814      0.1814      0.1814    
       0.1814      0.1814      0.1814      0.1814      0.1814      0.1814      0.1814      0.1814      0.1814      0.1814    
       0.1814      0.1814      0.1814      0.1814      0.1814      0.1814      0.1814      0.1814      0.1814      0.1814    
       0.1814      0.1814      0.1814      0.1814      0.1814      0.1814      0.1814      0.1814      0.1814      0.1814    
       0.1814      0.1814      0.1814      0.1814      0.1814      0.1814      0.1814      0.1814      0.1814      0.1814    
       0.1814      0.1814      0.1814      0.1814      0.1814      0.1814      0.1814      0.1814      0.1814      0.1814    
       0.1814      0.1814      0.1814      0.1814      0.1814      0.1814      0.1814      0.1814      0.1814      0.1814    
       0.1814      0.1814      0.1814      0.1814      0.1814      0.1814      0.1814      0.1814      0.1814      0.1814    
       0.1814      0.1814      0.1814      0.1814      0.1814      0.1814      0.1814      0.1814      0.1814      0.1814    
       0.1814      0.1814      0.1814      0.1814      0.1814      0.1814      0.1814      0.1814      0.1814      0.1814    
       0.1814      0.1814      0.1814      0.1814      0.1814      0.1814      0.1814      0.1814      0.1814      0.1814    
       0.1814      0.1814      0.1814      0.1814      0.1814      0.1814      0.1814      0.1814      0.1814      0.1814    
       0.1814      0.1814      0.1814      0.1814      0.1814      0.1814      0.1814      0.1814      0.1814      0.1814    
       0.1814      0.1814      0.1814      0.1814      0.1814      0.1814    
   8   0.1814      0.1814      0.1814      0.1814      0.1814      0.1814      0.3629      0.3629      0.3629      0.3629    
       0.3629      0.1814      0.1814      0.1814      0.1814      0.1814      0.1814      0.1814      0.1814      0.1814    
       0.1814      0.1814      0.1814      0.1814      0.1814      0.1814      0.1814      0.1814      0.1814      0.1814    
       0.1814      0.1814      0.1814      0.1814      0.1814      0.1814      0.1814      0.1814      0.1814      0.1814    
       0.1814      0.1814      0.1814      0.1814      0.1814      0.1814      0.1814      0.1814      0.1814      0.1814    
       0.1814      0.1814      0.1814      0.1814      0.1814      0.1814      0.1814      0.1814      0.1814      0.1814    
       0.1814      0.1814      0.1814      0.1814      0.1814      0.1814      0.1814      0.1814      0.1814      0.1814    
       0.1814      0.1814      0.1814      0.1814      0.1814      0.1814      0.1814      0.1814      0.1814      0.1814    
       0.1814      0.1814      0.1814      0.1814      0.1814      0.1814      0.1814      0.1814      0.1814      0.1814    
       0.1814      0.1814      0.1814      0.1814      0.1814      0.1814      0.1814      0.1814      0.1814      0.1814    
       0.1814      0.1814      0.1814      0.1814      0.1814      0.1814      0.1814      0.1814      0.1814      0.1814    
       0.1814      0.1814      0.1814      0.1814      0.1814      0.1814      0.1814      0.1814      0.1814      0.1814    
       0.1814      0.1814      0.1814      0.1814      0.1814      0.1814      0.1814      0.1814      0.1814      0.1814    
       0.1814      0.1814      0.1814      0.1814      0.1814      0.1814      0.1814      0.1814      0.1814      0.1814    
       0.1814      0.1814      0.1814      0.1814      0.1814      0.1814      0.1814      0.1814      0.1814      0.1814    
       0.1814      0.1814      0.1814      0.1814      0.1814      0.1814      0.1814      0.1814      0.1814      0.1814    
       0.1814      0.1814      0.1814      0.1814      0.1814      0.1814      0.1814      0.1814      0.1814      0.1814    
       0.1814      0.1814      0.1814      0.1814      0.1814      0.1814      0.1814      0.1814      0.1814      0.1814    
       0.1814      0.1814      0.1814      0.1814      0.1814      0.1814    
   9   8.6400E-02  0.1814      0.1814      0.1814      0.1814      0.1814      0.1814      0.3629      0.3629      0.3629    
       0.3629      0.1814      0.1814      0.1814      0.1814      0.1814      0.1814      0.1814      0.1814      0.1814    
       0.1814      0.1814      0.1814      0.1814      0.1814      0.1814      0.1814      0.1814      0.1814      0.1814    
       0.1814      0.1814      0.1814      0.1814      0.1814      0.1814      0.1814      0.1814      0.1814      0.1814    
       0.1814      0.1814      0.1814      0.1814      0.1814      0.1814      0.1814      0.1814      0.1814      0.1814    
       0.1814      0.1814      0.1814      0.1814      0.1814      0.1814      0.1814      0.1814      0.1814      0.1814    
       0.1814      0.1814      0.1814      0.1814      0.1814      0.1814      0.1814      0.1814      0.1814      0.1814    
       0.1814      0.1814      0.1814      0.1814      0.1814      0.1814      0.1814      0.1814      0.1814      0.1814    
       0.1814      0.1814      0.1814      0.1814      0.1814      0.1814      0.1814      0.1814      0.1814      0.1814    
       0.1814      0.1814      0.1814      0.1814      0.1814      0.1814      0.1814      0.1814      0.1814      0.1814    
       0.1814      0.1814      0.1814      0.1814      0.1814      0.1814      0.1814      0.1814      0.1814      0.1814    
       0.1814      0.1814      0.1814      0.1814      0.1814      0.1814      0.1814      0.1814      0.1814      0.1814    
       0.1814      0.1814      0.1814      0.1814      0.1814      0.1814      0.1814      0.1814      0.1814      0.1814    
       0.1814      0.1814      0.1814      0.1814      0.1814      0.1814      0.1814      0.1814      0.1814      0.1814    
       0.1814      0.1814      0.1814      0.1814      0.1814      0.1814      0.1814      0.1814      0.1814      0.1814    
       0.1814      0.1814      0.1814      0.1814      0.1814      0.1814      0.1814      0.1814      0.1814      0.1814    
       0.1814      0.1814      0.1814      0.1814      0.1814      0.1814      0.1814      0.1814      0.1814      0.1814    
       0.1814      0.1814      0.1814      0.1814      0.1814      0.1814      0.1814      0.1814      0.1814      0.1814    
       0.1814      0.1814      0.1814      0.1814      0.1814      0.1814    
  10   8.6400E-02  0.1814      0.1814      0.1814      0.1814      0.1814      0.1814      0.3629      0.3629      0.3629    
       0.3629      0.3629      0.1814      0.1814      0.1814      0.1814      0.1814      0.1814      0.1814      0.1814    
       0.1814      0.1814      0.1814      0.1814      0.1814      0.1814      0.1814      0.1814      0.1814      0.1814    
       0.1814      0.1814      0.1814      0.1814      0.1814      0.1814      0.1814      0.1814      0.1814      0.1814    
       0.1814      0.1814      0.1814      0.1814      0.1814      0.1814      0.1814      0.1814      0.1814      0.1814    
       0.1814      0.1814      0.1814      0.1814      0.1814      0.1814      0.1814      0.1814      0.1814      0.1814    
       0.1814      0.1814      0.1814      0.1814      0.1814      0.1814      0.1814      0.1814      0.1814      0.1814    
       0.1814      0.1814      0.1814      0.1814      0.1814      0.1814      0.1814      0.1814      0.1814      0.1814    
       0.1814      0.1814      0.1814      0.1814      0.1814      0.1814      0.1814      0.1814      0.1814      0.1814    
       0.1814      0.1814      0.1814      0.1814      0.1814      0.1814      0.1814      0.1814      0.1814      0.1814    
       0.1814      0.1814      0.1814      0.1814      0.1814      0.1814      0.1814      0.1814      0.1814      0.1814    
       0.1814      0.1814      0.1814      0.1814      0.1814      0.1814      0.1814      0.1814      0.1814      0.1814    
       0.1814      0.1814      0.1814      0.1814      0.1814      0.1814      0.1814      0.1814      0.1814      0.1814    
       0.1814      0.1814      0.1814      0.1814      0.1814      0.1814      0.1814      0.1814      0.1814      0.1814    
       0.1814      0.1814      0.1814      0.1814      0.1814      0.1814      0.1814      0.1814      0.1814      0.1814    
       0.1814      0.1814      0.1814      0.1814      0.1814      0.1814      0.1814      0.1814      0.1814      0.1814    
       0.1814      0.1814      0.1814      0.1814      0.1814      0.1814      0.1814      0.1814      0.1814      0.1814    
       0.1814      0.1814      0.1814      0.1814      0.1814      0.1814      0.1814      0.1814      0.1814      0.1814    
       0.1814      0.1814      0.1814      0.1814      0.1814      0.1814    
  11   8.6400E-02  0.1814      0.1814      0.1814      0.1814      0.1814      0.1814      0.3629      0.3629      0.3629    
       0.3629      0.3629      0.1814      0.1814      0.1814      0.1814      0.1814      0.1814      0.1814      0.1814    
       0.1814      0.1814      0.1814      0.1814      0.1814      0.1814      0.1814      0.1814      0.1814      0.1814    
       0.1814      0.1814      0.1814      0.1814      0.1814      0.1814      0.1814      0.1814      0.1814      0.1814    
       0.1814      0.1814      0.1814      0.1814      0.1814      0.1814      0.1814      0.1814      0.1814      0.1814    
       0.1814      0.1814      0.1814      0.1814      0.1814      0.1814      0.1814      0.1814      0.1814      0.1814    
       0.1814      0.1814      0.1814      0.1814      0.1814      0.1814      0.1814      0.1814      0.1814      0.1814    
       0.1814      0.1814      0.1814      0.1814      0.1814      0.1814      0.1814      0.1814      0.1814      0.1814    
       0.1814      0.1814      0.1814      0.1814      0.1814      0.1814      0.1814      0.1814      0.1814      0.1814    
       0.1814      0.1814      0.1814      0.1814      0.1814      0.1814      0.1814      0.1814      0.1814      0.1814    
       0.1814      0.1814      0.1814      0.1814      0.1814      0.1814      0.1814      0.1814      0.1814      0.1814    
       0.1814      0.1814      0.1814      0.1814      0.1814      0.1814      0.1814      0.1814      0.1814      0.1814    
       0.1814      0.1814      0.1814      0.1814      0.1814      0.1814      0.1814      0.1814      0.1814      0.1814    
       0.1814      0.1814      0.1814      0.1814      0.1814      0.1814      0.1814      0.1814      0.1814      0.1814    
       0.1814      0.1814      0.1814      0.1814      0.1814      0.1814      0.1814      0.1814      0.1814      0.1814    
       0.1814      0.1814      0.1814      0.1814      0.1814      0.1814      0.1814      0.1814      0.1814      0.1814    
       0.1814      0.1814      0.1814      0.1814      0.1814      0.1814      0.1814      0.1814      0.1814      0.1814    
       0.1814      0.1814      0.1814      0.1814      0.1814      0.1814      0.1814      0.1814      0.1814      0.1814    
       0.1814      0.1814      0.1814      0.1814      0.1814      0.1814    
  12   8.6400E-02  8.6400E-02  0.1814      0.1814      0.1814      0.1814      0.1814      0.3629      0.3629      0.3629    
       0.3629      0.3629      0.1814      0.1814      0.1814      0.1814      0.1814      0.1814      0.1814      0.1814    
       0.1814      0.1814      0.1814      0.1814      0.1814      0.1814      0.1814      0.1814      0.1814      0.1814    
       0.1814      0.1814      0.1814      0.1814      0.1814      0.1814      0.1814      0.1814      0.1814      0.1814    
       0.1814      0.1814      0.1814      0.1814      0.1814      0.1814      0.1814      0.1814      0.1814      0.1814    
       0.1814      0.1814      0.1814      0.1814      0.1814      0.1814      0.1814      0.1814      0.1814      0.1814    
       0.1814      0.1814      0.1814      0.1814      0.1814      0.1814      0.1814      0.1814      0.1814      0.1814    
       0.1814      0.1814      0.1814      0.1814      0.1814      0.1814      0.1814      0.1814      0.1814      0.1814    
       0.1814      0.1814      0.1814      0.1814      0.1814      0.1814      0.1814      0.1814      0.1814      0.1814    
       0.1814      0.1814      0.1814      0.1814      0.1814      0.1814      0.1814      0.1814      0.1814      0.1814    
       0.1814      0.1814      0.1814      0.1814      0.1814      0.1814      0.1814      0.1814      0.1814      0.1814    
       0.1814      0.1814      0.1814      0.1814      0.1814      0.1814      0.1814      0.1814      0.1814      0.1814    
       0.1814      0.1814      0.1814      0.1814      0.1814      0.1814      0.1814      0.1814      0.1814      0.1814    
       0.1814      0.1814      0.1814      0.1814      0.1814      0.1814      0.1814      0.1814      0.1814      0.1814    
       0.1814      0.1814      0.1814      0.1814      0.1814      0.1814      0.1814      0.1814      0.1814      0.1814    
       0.1814      0.1814      0.1814      0.1814      0.1814      0.1814      0.1814      0.1814      0.1814      0.1814    
       0.1814      0.1814      0.1814      0.1814      0.1814      0.1814      0.1814      0.1814      0.1814      0.1814    
       0.1814      0.1814      0.1814      0.1814      0.1814      0.1814      0.1814      0.1814      0.1814      0.1814    
       0.1814      0.1814      0.1814      0.1814      0.1814      0.1814    
  13   8.6400E-02  8.6400E-02  0.1814      0.1814      0.1814      0.1814      0.1814      0.3629      0.3629      0.3629    
       0.3629      0.3629      0.1814      0.1814      0.1814      0.1814      0.1814      0.1814      0.1814      0.1814    
       0.1814      0.1814      0.1814      0.1814      0.1814      0.1814      0.1814      0.1814      0.1814      0.1814    
       0.1814      0.1814      0.1814      0.1814      0.1814      0.1814      0.1814      0.1814      0.1814      0.1814    
       0.1814      0.1814      0.1814      0.1814      0.1814      0.1814      0.1814      0.1814      0.1814      0.1814    
       0.1814      0.1814      0.1814      0.1814      0.1814      0.1814      0.1814      0.1814      0.1814      0.1814    
       0.1814      0.1814      0.1814      0.1814      0.1814      0.1814      0.1814      0.1814      0.1814      0.1814    
       0.1814      0.1814      0.1814      0.1814      0.1814      0.1814      0.1814      0.1814      0.1814      0.1814    
       0.1814      0.1814      0.1814      0.1814      0.1814      0.1814      0.1814      0.1814      0.1814      0.1814    
       0.1814      0.1814      0.1814      0.1814      0.1814      0.1814      0.1814      0.1814      0.1814      0.1814    
       0.1814      0.1814      0.1814      0.1814      0.1814      0.1814      0.1814      0.1814      0.1814      0.1814    
       0.1814      0.1814      0.1814      0.1814      0.1814      0.1814      0.1814      0.1814      0.1814      0.1814    
       0.1814      0.1814      0.1814      0.1814      0.1814      0.1814      0.1814      0.1814      0.1814      0.1814    
       0.1814      0.1814      0.1814      0.1814      0.1814      0.1814      0.1814      0.1814      0.1814      0.1814    
       0.1814      0.1814      0.1814      0.1814      0.1814      0.1814      0.1814      0.1814      0.1814      0.1814    
       0.1814      0.1814      0.1814      0.1814      0.1814      0.1814      0.1814      0.1814      0.1814      0.1814    
       0.1814      0.1814      0.1814      0.1814      0.1814      0.1814      0.1814      0.1814      0.1814      0.1814    
       0.1814      0.1814      0.1814      0.1814      0.1814      0.1814      0.1814      0.1814      0.1814      0.1814    
       0.1814      0.1814      0.1814      0.1814      0.1814      0.1814    
  14   8.6400E-02  8.6400E-02  0.1814      0.1814      0.1814      0.1814      0.1814      0.3629      0.3629      0.3629    
       0.3629      0.3629      0.1814      0.1814      0.1814      0.1814      0.1814      0.1814      0.1814      0.1814    
       0.1814      0.1814      0.1814      0.1814      0.1814      0.1814      0.1814      0.1814      0.1814      0.1814    
       0.1814      0.1814      0.1814      0.1814      0.1814      0.1814      0.1814      0.1814      0.1814      0.1814    
       0.1814      0.1814      0.1814      0.1814      0.1814      0.1814      0.1814      0.1814      0.1814      0.1814    
       0.1814      0.1814      0.1814      0.1814      0.1814      0.1814      0.1814      0.1814      0.1814      0.1814    
       0.1814      0.1814      0.1814      0.1814      0.1814      0.1814      0.1814      0.1814      0.1814      0.1814    
       0.1814      0.1814      0.1814      0.1814      0.1814      0.1814      0.1814      0.1814      0.1814      0.1814    
       0.1814      0.1814      0.1814      0.1814      0.1814      0.1814      0.1814      0.1814      0.1814      0.1814    
       0.1814      0.1814      0.1814      0.1814      0.1814      0.1814      0.1814      0.1814      0.1814      0.1814    
       0.1814      0.1814      0.1814      0.1814      0.1814      0.1814      0.1814      0.1814      0.1814      0.1814    
       0.1814      0.1814      0.1814      0.1814      0.1814      0.1814      0.1814      0.1814      0.1814      0.1814    
       0.1814      0.1814      0.1814      0.1814      0.1814      0.1814      0.1814      0.1814      0.1814      0.1814    
       0.1814      0.1814      0.1814      0.1814      0.1814      0.1814      0.1814      0.1814      0.1814      0.1814    
       0.1814      0.1814      0.1814      0.1814      0.1814      0.1814      0.1814      0.1814      0.1814      0.1814    
       0.1814      0.1814      0.1814      0.1814      0.1814      0.1814      0.1814      0.1814      0.1814      0.1814    
       0.1814      0.1814      0.1814      0.1814      0.1814      0.1814      0.1814      0.1814      0.1814      0.1814    
       0.1814      0.1814      0.1814      0.1814      0.1814      0.1814      0.1814      0.1814      0.1814      0.1814    
       0.1814      0.1814      0.1814      0.1814      0.1814      0.1814    
  15   8.6400E-02  8.6400E-02  8.6400E-02  0.1814      0.1814      0.1814      0.1814      0.3629      0.3629      0.3629    
       0.3629      0.1814      0.1814      0.1814      0.1814      0.1814      0.1814      0.1814      0.1814      0.1814    
       0.1814      0.1814      0.1814      0.1814      0.1814      0.1814      0.1814      0.1814      0.1814      0.1814    
       0.1814      0.1814      0.1814      0.1814      0.1814      0.1814      0.1814      0.1814      0.1814      0.1814    
       0.1814      0.1814      0.1814      0.1814      0.1814      0.1814      0.1814      0.1814      0.1814      0.1814    
       0.1814      0.1814      0.1814      0.1814      0.1814      0.1814      0.1814      0.1814      0.1814      0.1814    
       0.1814      0.1814      0.1814      0.1814      0.1814      0.1814      0.1814      0.1814      0.1814      0.1814    
       0.1814      0.1814      0.1814      0.1814      0.1814      0.1814      0.1814      0.1814      0.1814      0.1814    
       0.1814      0.1814      0.1814      0.1814      0.1814      0.1814      0.1814      0.1814      0.1814      0.1814    
       0.1814      0.1814      0.1814      0.1814      0.1814      0.1814      0.1814      0.1814      0.1814      0.1814    
       0.1814      0.1814      0.1814      0.1814      0.1814      0.1814      0.1814      0.1814      0.1814      0.1814    
       0.1814      0.1814      0.1814      0.1814      0.1814      0.1814      0.1814      0.1814      0.1814      0.1814    
       0.1814      0.1814      0.1814      0.1814      0.1814      0.1814      0.1814      0.1814      0.1814      0.1814    
       0.1814      0.1814      0.1814      0.1814      0.1814      0.1814      0.1814      0.1814      0.1814      0.1814    
       0.1814      0.1814      0.1814      0.1814      0.1814      0.1814      0.1814      0.1814      0.1814      0.1814    
       0.1814      0.1814      0.1814      0.1814      0.1814      0.1814      0.1814      0.1814      0.1814      0.1814    
       0.1814      0.1814      0.1814      0.1814      0.1814      0.1814      0.1814      0.1814      0.1814      0.1814    
       0.1814      0.1814      0.1814      0.1814      0.1814      0.1814      0.1814      0.1814      0.1814      0.1814    
       0.1814      0.1814      0.1814      0.1814      0.1814      0.1814    
  16   8.6400E-02  8.6400E-02  8.6400E-02  0.1814      0.1814      0.1814      0.1814      0.3629      0.3629      0.3629    
       0.3629      0.1814      0.1814      0.1814      0.1814      0.1814      0.1814      0.1814      0.1814      0.1814    
       0.1814      0.1814      0.1814      0.1814      0.1814      0.1814      0.1814      0.1814      0.1814      0.1814    
       0.1814      0.1814      0.1814      0.1814      0.1814      0.1814      0.1814      0.1814      0.1814      0.1814    
       0.1814      0.1814      0.1814      0.1814      0.1814      0.1814      0.1814      0.1814      0.1814      0.1814    
       0.1814      0.1814      0.1814      0.1814      0.1814      0.1814      0.1814      0.1814      0.1814      0.1814    
       0.1814      0.1814      0.1814      0.1814      0.1814      0.1814      0.1814      0.1814      0.1814      0.1814    
       0.1814      0.1814      0.1814      0.1814      0.1814      0.1814      0.1814      0.1814      0.1814      0.1814    
       0.1814      0.1814      0.1814      0.1814      0.1814      0.1814      0.1814      0.1814      0.1814      0.1814    
       0.1814      0.1814      0.1814      0.1814      0.1814      0.1814      0.1814      0.1814      0.1814      0.1814    
       0.1814      0.1814      0.1814      0.1814      0.1814      0.1814      0.1814      0.1814      0.1814      0.1814    
       0.1814      0.1814      0.1814      0.1814      0.1814      0.1814      0.1814      0.1814      0.1814      0.1814    
       0.1814      0.1814      0.1814      0.1814      0.1814      0.1814      0.1814      0.1814      0.1814      0.1814    
       0.1814      0.1814      0.1814      0.1814      0.1814      0.1814      0.1814      0.1814      0.1814      0.1814    
       0.1814      0.1814      0.1814      0.1814      0.1814      0.1814      0.1814      0.1814      0.1814      0.1814    
       0.1814      0.1814      0.1814      0.1814      0.1814      0.1814      0.1814      0.1814      0.1814      0.1814    
       0.1814      0.1814      0.1814      0.1814      0.1814      0.1814      0.1814      0.1814      0.1814      0.1814    
       0.1814      0.1814      0.1814      0.1814      0.1814      0.1814      0.1814      0.1814      0.1814      0.1814    
       0.1814      0.1814      0.1814      0.1814      0.1814      0.1814    
  17   8.6400E-02  8.6400E-02  8.6400E-02  0.1814      0.1814      0.1814      0.1814      0.3629      0.3629      0.3629    
       0.3629      0.1814      0.1814      0.1814      0.1814      0.1814      0.1814      0.1814      0.1814      0.1814    
       0.1814      0.1814      0.1814      0.1814      0.1814      0.1814      0.1814      0.1814      0.1814      0.1814    
       0.1814      0.1814      0.1814      0.1814      0.1814      0.1814      0.1814      0.1814      0.1814      0.1814    
       0.1814      0.1814      0.1814      0.1814      0.1814      0.1814      0.1814      0.1814      0.1814      0.1814    
       0.1814      0.1814      0.1814      0.1814      0.1814      0.1814      0.1814      0.1814      0.1814      0.1814    
       0.1814      0.1814      0.1814      0.1814      0.1814      0.1814      0.1814      0.1814      0.1814      0.1814    
       0.1814      0.1814      0.1814      0.1814      0.1814      0.1814      0.1814      0.1814      0.1814      0.1814    
       0.1814      0.1814      0.1814      0.1814      0.1814      0.1814      0.1814      0.1814      0.1814      0.1814    
       0.1814      0.1814      0.1814      0.1814      0.1814      0.1814      0.1814      0.1814      0.1814      0.1814    
       0.1814      0.1814      0.1814      0.1814      0.1814      0.1814      0.1814      0.1814      0.1814      0.1814    
       0.1814      0.1814      0.1814      0.1814      0.1814      0.1814      0.1814      0.1814      0.1814      0.1814    
       0.1814      0.1814      0.1814      0.1814      0.1814      0.1814      0.1814      0.1814      0.1814      0.1814    
       0.1814      0.1814      0.1814      0.1814      0.1814      0.1814      0.1814      0.1814      0.1814      0.1814    
       0.1814      0.1814      0.1814      0.1814      0.1814      0.1814      0.1814      0.1814      0.1814      0.1814    
       0.1814      0.1814      0.1814      0.1814      0.1814      0.1814      0.1814      0.1814      0.1814      0.1814    
       0.1814      0.1814      0.1814      0.1814      0.1814      0.1814      0.1814      0.1814      0.1814      0.1814    
       0.1814      0.1814      0.1814      0.1814      0.1814      0.1814      0.1814      0.1814      0.1814      0.1814    
       0.1814      0.1814      0.1814      0.1814      0.1814      0.1814    
  18   8.6400E-02  8.6400E-02  8.6400E-02  8.6400E-02  0.1814      0.1814      0.1814      0.1814      0.3629      0.3629    
       0.3629      0.1814      0.1814      0.1814      0.1814      0.1814      0.1814      0.1814      0.1814      0.1814    
       0.1814      0.1814      0.1814      0.1814      0.1814      0.1814      0.1814      0.1814      0.1814      0.1814    
       0.1814      0.1814      0.1814      0.1814      0.1814      0.1814      0.1814      0.1814      0.1814      0.1814    
       0.1814      0.1814      0.1814      0.1814      0.1814      0.1814      0.1814      0.1814      0.1814      0.1814    
       0.1814      0.1814      0.1814      0.1814      0.1814      0.1814      0.1814      0.1814      0.1814      0.1814    
       0.1814      0.1814      0.1814      0.1814      0.1814      0.1814      0.1814      0.1814      0.1814      0.1814    
       0.1814      0.1814      0.1814      0.1814      0.1814      0.1814      0.1814      0.1814      0.1814      0.1814    
       0.1814      0.1814      0.1814      0.1814      0.1814      0.1814      0.1814      0.1814      0.1814      0.1814    
       0.1814      0.1814      0.1814      0.1814      0.1814      0.1814      0.1814      0.1814      0.1814      0.1814    
       0.1814      0.1814      0.1814      0.1814      0.1814      0.1814      0.1814      0.1814      0.1814      0.1814    
       0.1814      0.1814      0.1814      0.1814      0.1814      0.1814      0.1814      0.1814      0.1814      0.1814    
       0.1814      0.1814      0.1814      0.1814      0.1814      0.1814      0.1814      0.1814      0.1814      0.1814    
       0.1814      0.1814      0.1814      0.1814      0.1814      0.1814      0.1814      0.1814      0.1814      0.1814    
       0.1814      0.1814      0.1814      0.1814      0.1814      0.1814      0.1814      0.1814      0.1814      0.1814    
       0.1814      0.1814      0.1814      0.1814      0.1814      0.1814      0.1814      0.1814      0.1814      0.1814    
       0.1814      0.1814      0.1814      0.1814      0.1814      0.1814      0.1814      0.1814      0.1814      0.1814    
       0.1814      0.1814      0.1814      0.1814      0.1814      0.1814      0.1814      0.1814      0.1814      0.1814    
       0.1814      0.1814      0.1814      0.1814      0.1814      0.1814    
  19   8.6400E-02  8.6400E-02  8.6400E-02  8.6400E-02  0.1814      0.1814      0.1814      0.1814      0.3629      0.3629    
       0.3629      0.3629      0.1814      0.1814      0.1814      0.1814      0.1814      0.1814      0.1814      0.1814    
       0.1814      0.1814      0.1814      0.1814      0.1814      0.1814      0.1814      0.1814      0.1814      0.1814    
       0.1814      0.1814      0.1814      0.1814      0.1814      0.1814      0.1814      0.1814      0.1814      0.1814    
       0.1814      0.1814      0.1814      0.1814      0.1814      0.1814      0.1814      0.1814      0.1814      0.1814    
       0.1814      0.1814      0.1814      0.1814      0.1814      0.1814      0.1814      0.1814      0.1814      0.1814    
       0.1814      0.1814      0.1814      0.1814      0.1814      0.1814      0.1814      0.1814      0.1814      0.1814    
       0.1814      0.1814      0.1814      0.1814      0.1814      0.1814      0.1814      0.1814      0.1814      0.1814    
       0.1814      0.1814      0.1814      0.1814      0.1814      0.1814      0.1814      0.1814      0.1814      0.1814    
       0.1814      0.1814      0.1814      0.1814      0.1814      0.1814      0.1814      0.1814      0.1814      0.1814    
       0.1814      0.1814      0.1814      0.1814      0.1814      0.1814      0.1814      0.1814      0.1814      0.1814    
       0.1814      0.1814      0.1814      0.1814      0.1814      0.1814      0.1814      0.1814      0.1814      0.1814    
       0.1814      0.1814      0.1814      0.1814      0.1814      0.1814      0.1814      0.1814      0.1814      0.1814    
       0.1814      0.1814      0.1814      0.1814      0.1814      0.1814      0.1814      0.1814      0.1814      0.1814    
       0.1814      0.1814      0.1814      0.1814      0.1814      0.1814      0.1814      0.1814      0.1814      0.1814    
       0.1814      0.1814      0.1814      0.1814      0.1814      0.1814      0.1814      0.1814      0.1814      0.1814    
       0.1814      0.1814      0.1814      0.1814      0.1814      0.1814      0.1814      0.1814      0.1814      0.1814    
       0.1814      0.1814      0.1814      0.1814      0.1814      0.1814      0.1814      0.1814      0.1814      0.1814    
       0.1814      0.1814      0.1814      0.1814      0.1814      0.1814    
  20   8.6400E-02  8.6400E-02  8.6400E-02  8.6400E-02  0.1814      0.1814      0.1814      0.1814      0.3629      0.3629    
       0.3629      0.3629      0.1814      0.1814      0.1814      0.1814      0.1814      0.1814      0.1814      0.1814    
       0.1814      0.1814      0.1814      0.1814      0.1814      0.1814      0.1814      0.1814      0.1814      0.1814    
       0.1814      0.1814      0.1814      0.1814      0.1814      0.1814      0.1814      0.1814      0.1814      0.1814    
       0.1814      0.1814      0.1814      0.1814      0.1814      0.1814      0.1814      0.1814      0.1814      0.1814    
       0.1814      0.1814      0.1814      0.1814      0.1814      0.1814      0.1814      0.1814      0.1814      0.1814    
       0.1814      0.1814      0.1814      0.1814      0.1814      0.1814      0.1814      0.1814      0.1814      0.1814    
       0.1814      0.1814      0.1814      0.1814      0.1814      0.1814      0.1814      0.1814      0.1814      0.1814    
       0.1814      0.1814      0.1814      0.1814      0.1814      0.1814      0.1814      0.1814      0.1814      0.1814    
       0.1814      0.1814      0.1814      0.1814      0.1814      0.1814      0.1814      0.1814      0.1814      0.1814    
       0.1814      0.1814      0.1814      0.1814      0.1814      0.1814      0.1814      0.1814      0.1814      0.1814    
       0.1814      0.1814      0.1814      0.1814      0.1814      0.1814      0.1814      0.1814      0.1814      0.1814    
       0.1814      0.1814      0.1814      0.1814      0.1814      0.1814      0.1814      0.1814      0.1814      0.1814    
       0.1814      0.1814      0.1814      0.1814      0.1814      0.1814      0.1814      0.1814      0.1814      0.1814    
       0.1814      0.1814      0.1814      0.1814      0.1814      0.1814      0.1814      0.1814      0.1814      0.1814    
       0.1814      0.1814      0.1814      0.1814      0.1814      0.1814      0.1814      0.1814      0.1814      0.1814    
       0.1814      0.1814      0.1814      0.1814      0.1814      0.1814      0.1814      0.1814      0.1814      0.1814    
       0.1814      0.1814      0.1814      0.1814      0.1814      0.1814      0.1814      0.1814      0.1814      0.1814    
       0.1814      0.1814      0.1814      0.1814      0.1814      0.1814    
  21   8.6400E-02  8.6400E-02  8.6400E-02  8.6400E-02  0.1814      0.1814      0.1814      0.1814      0.3629      0.3629    
       0.3629      0.3629      0.3629      0.1814      0.1814      0.1814      0.1814      0.1814      0.1814      0.1814    
       0.1814      0.1814      0.1814      0.1814      0.1814      0.1814      0.1814      0.1814      0.1814      0.1814    
       0.1814      0.1814      0.1814      0.1814      0.1814      0.1814      0.1814      0.1814      0.1814      0.1814    
       0.1814      0.1814      0.1814      0.1814      0.1814      0.1814      0.1814      0.1814      0.1814      0.1814    
       0.1814      0.1814      0.1814      0.1814      0.1814      0.1814      0.1814      0.1814      0.1814      0.1814    
       0.1814      0.1814      0.1814      0.1814      0.1814      0.1814      0.1814      0.1814      0.1814      0.1814    
       0.1814      0.1814      0.1814      0.1814      0.1814      0.1814      0.1814      0.1814      0.1814      0.1814    
       0.1814      0.1814      0.1814      0.1814      0.1814      0.1814      0.1814      0.1814      0.1814      0.1814    
       0.1814      0.1814      0.1814      0.1814      0.1814      0.1814      0.1814      0.1814      0.1814      0.1814    
       0.1814      0.1814      0.1814      0.1814      0.1814      0.1814      0.1814      0.1814      0.1814      0.1814    
       0.1814      0.1814      0.1814      0.1814      0.1814      0.1814      0.1814      0.1814      0.1814      0.1814    
       0.1814      0.1814      0.1814      0.1814      0.1814      0.1814      0.1814      0.1814      0.1814      0.1814    
       0.1814      0.1814      0.1814      0.1814      0.1814      0.1814      0.1814      0.1814      0.1814      0.1814    
       0.1814      0.1814      0.1814      0.1814      0.1814      0.1814      0.1814      0.1814      0.1814      0.1814    
       0.1814      0.1814      0.1814      0.1814      0.1814      0.1814      0.1814      0.1814      0.1814      0.1814    
       0.1814      0.1814      0.1814      0.1814      0.1814      0.1814      0.1814      0.1814      0.1814      0.1814    
       0.1814      0.1814      0.1814      0.1814      0.1814      0.1814      0.1814      0.1814      0.1814      0.1814    
       0.1814      0.1814      0.1814      0.1814      0.1814      0.1814    
  22   8.6400E-02  8.6400E-02  8.6400E-02  8.6400E-02  0.1814      0.1814      0.1814      0.1814      0.3629      0.3629    
       0.3629      0.3629      0.3629      0.1814      0.1814      0.1814      0.1814      0.1814      0.1814      0.1814    
       0.1814      0.1814      0.1814      0.1814      0.1814      0.1814      0.1814      0.1814      0.1814      0.1814    
       0.1814      0.1814      0.1814      0.1814      0.1814      0.1814      0.1814      0.1814      0.1814      0.1814    
       0.1814      0.1814      0.1814      0.1814      0.1814      0.1814      0.1814      0.1814      0.1814      0.1814    
       0.1814      0.1814      0.1814      0.1814      0.1814      0.1814      0.1814      0.1814      0.1814      0.1814    
       0.1814      0.1814      0.1814      0.1814      0.1814      0.1814      0.1814      0.1814      0.1814      0.1814    
       0.1814      0.1814      0.1814      0.1814      0.1814      0.1814      0.1814      0.1814      0.1814      0.1814    
       0.1814      0.1814      0.1814      0.1814      0.1814      0.1814      0.1814      0.1814      0.1814      0.1814    
       0.1814      0.1814      0.1814      0.1814      0.1814      0.1814      0.1814      0.1814      0.1814      0.1814    
       0.1814      0.1814      0.1814      0.1814      0.1814      0.1814      0.1814      0.1814      0.1814      0.1814    
       0.1814      0.1814      0.1814      0.1814      0.1814      0.1814      0.1814      0.1814      0.1814      0.1814    
       0.1814      0.1814      0.1814      0.1814      0.1814      0.1814      0.1814      0.1814      0.1814      0.1814    
       0.1814      0.1814      0.1814      0.1814      0.1814      0.1814      0.1814      0.1814      0.1814      0.1814    
       0.1814      0.1814      0.1814      0.1814      0.1814      0.1814      0.1814      0.1814      0.1814      0.1814    
       0.1814      0.1814      0.1814      0.1814      0.1814      0.1814      0.1814      0.1814      0.1814      0.1814    
       0.1814      0.1814      0.1814      0.1814      0.1814      0.1814      0.1814      0.1814      0.1814      0.1814    
       0.1814      0.1814      0.1814      0.1814      0.1814      0.1814      0.1814      0.1814      0.1814      0.1814    
       0.1814      0.1814      0.1814      0.1814      0.1814      0.1814    
  23   8.6400E-02  8.6400E-02  8.6400E-02  8.6400E-02  0.1814      0.1814      0.1814      0.1814      0.1814      0.3629    
       0.3629      0.3629      0.3629      0.1814      0.1814      0.1814      0.1814      0.1814      0.1814      0.1814    
       0.1814      0.1814      0.1814      0.1814      0.1814      0.1814      0.1814      0.1814      0.1814      0.1814    
       0.1814      0.1814      0.1814      0.1814      0.1814      0.1814      0.1814      0.1814      0.1814      0.1814    
       0.1814      0.1814      0.1814      0.1814      0.1814      0.1814      0.1814      0.1814      0.1814      0.1814    
       0.1814      0.1814      0.1814      0.1814      0.1814      0.1814      0.1814      0.1814      0.1814      0.1814    
       0.1814      0.1814      0.1814      0.1814      0.1814      0.1814      0.1814      0.1814      0.1814      0.1814    
       0.1814      0.1814      0.1814      0.1814      0.1814      0.1814      0.1814      0.1814      0.1814      0.1814    
       0.1814      0.1814      0.1814      0.1814      0.1814      0.1814      0.1814      0.1814      0.1814      0.1814    
       0.1814      0.1814      0.1814      0.1814      0.1814      0.1814      0.1814      0.1814      0.1814      0.1814    
       0.1814      0.1814      0.1814      0.1814      0.1814      0.1814      0.1814      0.1814      0.1814      0.1814    
       0.1814      0.1814      0.1814      0.1814      0.1814      0.1814      0.1814      0.1814      0.1814      0.1814    
       0.1814      0.1814      0.1814      0.1814      0.1814      0.1814      0.1814      0.1814      0.1814      0.1814    
       0.1814      0.1814      0.1814      0.1814      0.1814      0.1814      0.1814      0.1814      0.1814      0.1814    
       0.1814      0.1814      0.1814      0.1814      0.1814      0.1814      0.1814      0.1814      0.1814      0.1814    
       0.1814      0.1814      0.1814      0.1814      0.1814      0.1814      0.1814      0.1814      0.1814      0.1814    
       0.1814      0.1814      0.1814      0.1814      0.1814      0.1814      0.1814      0.1814      0.1814      0.1814    
       0.1814      0.1814      0.1814      0.1814      0.1814      0.1814      0.1814      0.1814      0.1814      0.1814    
       0.1814      0.1814      0.1814      0.1814      0.1814      0.1814    
  24   8.6400E-02  8.6400E-02  8.6400E-02  8.6400E-02  0.1814      0.1814      0.1814      0.1814      0.1814      0.3629    
       0.3629      0.3629      0.3629      0.1814      0.1814      0.1814      0.1814      0.1814      0.1814      0.1814    
       0.1814      0.1814      0.1814      0.1814      0.1814      0.1814      0.1814      0.1814      0.1814      0.1814    
       0.1814      0.1814      0.1814      0.1814      0.1814      0.1814      0.1814      0.1814      0.1814      0.1814    
       0.1814      0.1814      0.1814      0.1814      0.1814      0.1814      0.1814      0.1814      0.1814      0.1814    
       0.1814      0.1814      0.1814      0.1814      0.1814      0.1814      0.1814      0.1814      0.1814      0.1814    
       0.1814      0.1814      0.1814      0.1814      0.1814      0.1814      0.1814      0.1814      0.1814      0.1814    
       0.1814      0.1814      0.1814      0.1814      0.1814      0.1814      0.1814      0.1814      0.1814      0.1814    
       0.1814      0.1814      0.1814      0.1814      0.1814      0.1814      0.1814      0.1814      0.1814      0.1814    
       0.1814      0.1814      0.1814      0.1814      0.1814      0.1814      0.1814      0.1814      0.1814      0.1814    
       0.1814      0.1814      0.1814      0.1814      0.1814      0.1814      0.1814      0.1814      0.1814      0.1814    
       0.1814      0.1814      0.1814      0.1814      0.1814      0.1814      0.1814      0.1814      0.1814      0.1814    
       0.1814      0.1814      0.1814      0.1814      0.1814      0.1814      0.1814      0.1814      0.1814      0.1814    
       0.1814      0.1814      0.1814      0.1814      0.1814      0.1814      0.1814      0.1814      0.1814      0.1814    
       0.1814      0.1814      0.1814      0.1814      0.1814      0.1814      0.1814      0.1814      0.1814      0.1814    
       0.1814      0.1814      0.1814      0.1814      0.1814      0.1814      0.1814      0.1814      0.1814      0.1814    
       0.1814      0.1814      0.1814      0.1814      0.1814      0.1814      0.1814      0.1814      0.1814      0.1814    
       0.1814      0.1814      0.1814      0.1814      0.1814      0.1814      0.1814      0.1814      0.1814      0.1814    
       0.1814      0.1814      0.1814      0.1814      0.1814      0.1814    
  25   8.6400E-02  8.6400E-02  8.6400E-02  8.6400E-02  0.1814      0.1814      0.1814      0.1814      0.1814      0.3629    
       0.3629      0.3629      0.3629      0.1814      0.1814      0.1814      0.1814      0.1814      0.1814      0.1814    
       0.1814      0.1814      0.1814      0.1814      0.1814      0.1814      0.1814      0.1814      0.1814      0.1814    
       0.1814      0.1814      0.1814      0.1814      0.1814      0.1814      0.1814      0.1814      0.1814      0.1814    
       0.1814      0.1814      0.1814      0.1814      0.1814      0.1814      0.1814      0.1814      0.1814      0.1814    
       0.1814      0.1814      0.1814      0.1814      0.1814      0.1814      0.1814      0.1814      0.1814      0.1814    
       0.1814      0.1814      0.1814      0.1814      0.1814      0.1814      0.1814      0.1814      0.1814      0.1814    
       0.1814      0.1814      0.1814      0.1814      0.1814      0.1814      0.1814      0.1814      0.1814      0.1814    
       0.1814      0.1814      0.1814      0.1814      0.1814      0.1814      0.1814      0.1814      0.1814      0.1814    
       0.1814      0.1814      0.1814      0.1814      0.1814      0.1814      0.1814      0.1814      0.1814      0.1814    
       0.1814      0.1814      0.1814      0.1814      0.1814      0.1814      0.1814      0.1814      0.1814      0.1814    
       0.1814      0.1814      0.1814      0.1814      0.1814      0.1814      0.1814      0.1814      0.1814      0.1814    
       0.1814      0.1814      0.1814      0.1814      0.1814      0.1814      0.1814      0.1814      0.1814      0.1814    
       0.1814      0.1814      0.1814      0.1814      0.1814      0.1814      0.1814      0.1814      0.1814      0.1814    
       0.1814      0.1814      0.1814      0.1814      0.1814      0.1814      0.1814      0.1814      0.1814      0.1814    
       0.1814      0.1814      0.1814      0.1814      0.1814      0.1814      0.1814      0.1814      0.1814      0.1814    
       0.1814      0.1814      0.1814      0.1814      0.1814      0.1814      0.1814      0.1814      0.1814      0.1814    
       0.1814      0.1814      0.1814      0.1814      0.1814      0.1814      0.1814      0.1814      0.1814      0.1814    
       0.1814      0.1814      0.1814      0.1814      0.1814      0.1814    
  26   8.6400E-02  8.6400E-02  8.6400E-02  8.6400E-02  8.6400E-02  0.1814      0.1814      0.1814      0.1814      0.1814    
       0.3629      0.3629      0.3629      0.1814      0.1814      0.1814      0.1814      0.1814      0.1814      0.1814    
       0.1814      0.1814      0.1814      0.1814      0.1814      0.1814      0.1814      0.1814      0.1814      0.1814    
       0.1814      0.1814      0.1814      0.1814      0.1814      0.1814      0.1814      0.1814      0.1814      0.1814    
       0.1814      0.1814      0.1814      0.1814      0.1814      0.1814      0.1814      0.1814      0.1814      0.1814    
       0.1814      0.1814      0.1814      0.1814      0.1814      0.1814      0.1814      0.1814      0.1814      0.1814    
       0.1814      0.1814      0.1814      0.1814      0.1814      0.1814      0.1814      0.1814      0.1814      0.1814    
       0.1814      0.1814      0.1814      0.1814      0.1814      0.1814      0.1814      0.1814      0.1814      0.1814    
       0.1814      0.1814      0.1814      0.1814      0.1814      0.1814      0.1814      0.1814      0.1814      0.1814    
       0.1814      0.1814      0.1814      0.1814      0.1814      0.1814      0.1814      0.1814      0.1814      0.1814    
       0.1814      0.1814      0.1814      0.1814      0.1814      0.1814      0.1814      0.1814      0.1814      0.1814    
       0.1814      0.1814      0.1814      0.1814      0.1814      0.1814      0.1814      0.1814      0.1814      0.1814    
       0.1814      0.1814      0.1814      0.1814      0.1814      0.1814      0.1814      0.1814      0.1814      0.1814    
       0.1814      0.1814      0.1814      0.1814      0.1814      0.1814      0.1814      0.1814      0.1814      0.1814    
       0.1814      0.1814      0.1814      0.1814      0.1814      0.1814      0.1814      0.1814      0.1814      0.1814    
       0.1814      0.1814      0.1814      0.1814      0.1814      0.1814      0.1814      0.1814      0.1814      0.1814    
       0.1814      0.1814      0.1814      0.1814      0.1814      0.1814      0.1814      0.1814      0.1814      0.1814    
       0.1814      0.1814      0.1814      0.1814      0.1814      0.1814      0.1814      0.1814      0.1814      0.1814    
       0.1814      0.1814      0.1814      0.1814      0.1814      0.1814    
  27   8.6400E-02  8.6400E-02  8.6400E-02  8.6400E-02  8.6400E-02  0.1814      0.1814      0.1814      0.1814      0.1814    
       0.3629      0.3629      0.3629      0.1814      0.1814      0.1814      0.1814      0.1814      0.1814      0.1814    
       0.1814      0.1814      0.1814      0.1814      0.1814      0.1814      0.1814      0.1814      0.1814      0.1814    
       0.1814      0.1814      0.1814      0.1814      0.1814      0.1814      0.1814      0.1814      0.1814      0.1814    
       0.1814      0.1814      0.1814      0.1814      0.1814      0.1814      0.1814      0.1814      0.1814      0.1814    
       0.1814      0.1814      0.1814      0.1814      0.1814      0.1814      0.1814      0.1814      0.1814      0.1814    
       0.1814      0.1814      0.1814      0.1814      0.1814      0.1814      0.1814      0.1814      0.1814      0.1814    
       0.1814      0.1814      0.1814      0.1814      0.1814      0.1814      0.1814      0.1814      0.1814      0.1814    
       0.1814      0.1814      0.1814      0.1814      0.1814      0.1814      0.1814      0.1814      0.1814      0.1814    
       0.1814      0.1814      0.1814      0.1814      0.1814      0.1814      0.1814      0.1814      0.1814      0.1814    
       0.1814      0.1814      0.1814      0.1814      0.1814      0.1814      0.1814      0.1814      0.1814      0.1814    
       0.1814      0.1814      0.1814      0.1814      0.1814      0.1814      0.1814      0.1814      0.1814      0.1814    
       0.1814      0.1814      0.1814      0.1814      0.1814      0.1814      0.1814      0.1814      0.1814      0.1814    
       0.1814      0.1814      0.1814      0.1814      0.1814      0.1814      0.1814      0.1814      0.1814      0.1814    
       0.1814      0.1814      0.1814      0.1814      0.1814      0.1814      0.1814      0.1814      0.1814      0.1814    
       0.1814      0.1814      0.1814      0.1814      0.1814      0.1814      0.1814      0.1814      0.1814      0.1814    
       0.1814      0.1814      0.1814      0.1814      0.1814      0.1814      0.1814      0.1814      0.1814      0.1814    
       0.1814      0.1814      0.1814      0.1814      0.1814      0.1814      0.1814      0.1814      0.1814      0.1814    
       0.1814      0.1814      0.1814      0.1814      0.1814      0.1814    
  28   8.6400E-02  8.6400E-02  8.6400E-02  8.6400E-02  8.6400E-02  0.1814      0.1814      0.1814      0.1814      0.1814    
       0.3629      0.3629      0.3629      0.1814      0.1814      0.1814      0.1814      0.1814      0.1814      0.1814    
       0.1814      0.1814      0.1814      0.1814      0.1814      0.1814      0.1814      0.1814      0.1814      0.1814    
       0.1814      0.1814      0.1814      0.1814      0.1814      0.1814      0.1814      0.1814      0.1814      0.1814    
       0.1814      0.1814      0.1814      0.1814      0.1814      0.1814      0.1814      0.1814      0.1814      0.1814    
       0.1814      0.1814      0.1814      0.1814      0.1814      0.1814      0.1814      0.1814      0.1814      0.1814    
       0.1814      0.1814      0.1814      0.1814      0.1814      0.1814      0.1814      0.1814      0.1814      0.1814    
       0.1814      0.1814      0.1814      0.1814      0.1814      0.1814      0.1814      0.1814      0.1814      0.1814    
       0.1814      0.1814      0.1814      0.1814      0.1814      0.1814      0.1814      0.1814      0.1814      0.1814    
       0.1814      0.1814      0.1814      0.1814      0.1814      0.1814      0.1814      0.1814      0.1814      0.1814    
       0.1814      0.1814      0.1814      0.1814      0.1814      0.1814      0.1814      0.1814      0.1814      0.1814    
       0.1814      0.1814      0.1814      0.1814      0.1814      0.1814      0.1814      0.1814      0.1814      0.1814    
       0.1814      0.1814      0.1814      0.1814      0.1814      0.1814      0.1814      0.1814      0.1814      0.1814    
       0.1814      0.1814      0.1814      0.1814      0.1814      0.1814      0.1814      0.1814      0.1814      0.1814    
       0.1814      0.1814      0.1814      0.1814      0.1814      0.1814      0.1814      0.1814      0.1814      0.1814    
       0.1814      0.1814      0.1814      0.1814      0.1814      0.1814      0.1814      0.1814      0.1814      0.1814    
       0.1814      0.1814      0.1814      0.1814      0.1814      0.1814      0.1814      0.1814      0.1814      0.1814    
       0.1814      0.1814      0.1814      0.1814      0.1814      0.1814      0.1814      0.1814      0.1814      0.1814    
       0.1814      0.1814      0.1814      0.1814      0.1814      0.1814    
  29   8.6400E-02  8.6400E-02  8.6400E-02  8.6400E-02  8.6400E-02  0.1814      0.1814      0.1814      0.1814      0.1814    
       0.3629      0.3629      0.3629      0.1814      0.1814      0.1814      0.1814      0.1814      0.1814      0.1814    
       0.1814      0.1814      0.1814      0.1814      0.1814      0.1814      0.1814      0.1814      0.1814      0.1814    
       0.1814      0.1814      0.1814      0.1814      0.1814      0.1814      0.1814      0.1814      0.1814      0.1814    
       0.1814      0.1814      0.1814      0.1814      0.1814      0.1814      0.1814      0.1814      0.1814      0.1814    
       0.1814      0.1814      0.1814      0.1814      0.1814      0.1814      0.1814      0.1814      0.1814      0.1814    
       0.1814      0.1814      0.1814      0.1814      0.1814      0.1814      0.1814      0.1814      0.1814      0.1814    
       0.1814      0.1814      0.1814      0.1814      0.1814      0.1814      0.1814      0.1814      0.1814      0.1814    
       0.1814      0.1814      0.1814      0.1814      0.1814      0.1814      0.1814      0.1814      0.1814      0.1814    
       0.1814      0.1814      0.1814      0.1814      0.1814      0.1814      0.1814      0.1814      0.1814      0.1814    
       0.1814      0.1814      0.1814      0.1814      0.1814      0.1814      0.1814      0.1814      0.1814      0.1814    
       0.1814      0.1814      0.1814      0.1814      0.1814      0.1814      0.1814      0.1814      0.1814      0.1814    
       0.1814      0.1814      0.1814      0.1814      0.1814      0.1814      0.1814      0.1814      0.1814      0.1814    
       0.1814      0.1814      0.1814      0.1814      0.1814      0.1814      0.1814      0.1814      0.1814      0.1814    
       0.1814      0.1814      0.1814      0.1814      0.1814      0.1814      0.1814      0.1814      0.1814      0.1814    
       0.1814      0.1814      0.1814      0.1814      0.1814      0.1814      0.1814      0.1814      0.1814      0.1814    
       0.1814      0.1814      0.1814      0.1814      0.1814      0.1814      0.1814      0.1814      0.1814      0.1814    
       0.1814      0.1814      0.1814      0.1814      0.1814      0.1814      0.1814      0.1814      0.1814      0.1814    
       0.1814      0.1814      0.1814      0.1814      0.1814      0.1814    
  30   8.6400E-02  8.6400E-02  8.6400E-02  8.6400E-02  8.6400E-02  0.1814      0.1814      0.1814      0.1814      0.1814    
       0.3629      0.3629      0.3629      0.1814      0.1814      0.1814      0.1814      0.1814      0.1814      0.1814    
       0.1814      0.1814      0.1814      0.1814      0.1814      0.1814      0.1814      0.1814      0.1814      0.1814    
       0.1814      0.1814      0.1814      0.1814      0.1814      0.1814      0.1814      0.1814      0.1814      0.1814    
       0.1814      0.1814      0.1814      0.1814      0.1814      0.1814      0.1814      0.1814      0.1814      0.1814    
       0.1814      0.1814      0.1814      0.1814      0.1814      0.1814      0.1814      0.1814      0.1814      0.1814    
       0.1814      0.1814      0.1814      0.1814      0.1814      0.1814      0.1814      0.1814      0.1814      0.1814    
       0.1814      0.1814      0.1814      0.1814      0.1814      0.1814      0.1814      0.1814      0.1814      0.1814    
       0.1814      0.1814      0.1814      0.1814      0.1814      0.1814      0.1814      0.1814      0.1814      0.1814    
       0.1814      0.1814      0.1814      0.1814      0.1814      0.1814      0.1814      0.1814      0.1814      0.1814    
       0.1814      0.1814      0.1814      0.1814      0.1814      0.1814      0.1814      0.1814      0.1814      0.1814    
       0.1814      0.1814      0.1814      0.1814      0.1814      0.1814      0.1814      0.1814      0.1814      0.1814    
       0.1814      0.1814      0.1814      0.1814      0.1814      0.1814      0.1814      0.1814      0.1814      0.1814    
       0.1814      0.1814      0.1814      0.1814      0.1814      0.1814      0.1814      0.1814      0.1814      0.1814    
       0.1814      0.1814      0.1814      0.1814      0.1814      0.1814      0.1814      0.1814      0.1814      0.1814    
       0.1814      0.1814      0.1814      0.1814      0.1814      0.1814      0.1814      0.1814      0.1814      0.1814    
       0.1814      0.1814      0.1814      0.1814      0.1814      0.1814      0.1814      0.1814      0.1814      0.1814    
       0.1814      0.1814      0.1814      0.1814      0.1814      0.1814      0.1814      0.1814      0.1814      0.1814    
       0.1814      0.1814      0.1814      0.1814      0.1814      0.1814    
  31   8.6400E-02  8.6400E-02  8.6400E-02  8.6400E-02  8.6400E-02  0.1814      0.1814      0.1814      0.1814      0.1814    
       0.3629      0.3629      0.3629      0.1814      0.1814      0.1814      0.1814      0.1814      0.1814      0.1814    
       0.1814      0.1814      0.1814      0.1814      0.1814      0.1814      0.1814      0.1814      0.1814      0.1814    
       0.1814      0.1814      0.1814      0.1814      0.1814      0.1814      0.1814      0.1814      0.1814      0.1814    
       0.1814      0.1814      0.1814      0.1814      0.1814      0.1814      0.1814      0.1814      0.1814      0.1814    
       0.1814      0.1814      0.1814      0.1814      0.1814      0.1814      0.1814      0.1814      0.1814      0.1814    
       0.1814      0.1814      0.1814      0.1814      0.1814      0.1814      0.1814      0.1814      0.1814      0.1814    
       0.1814      0.1814      0.1814      0.1814      0.1814      0.1814      0.1814      0.1814      0.1814      0.1814    
       0.1814      0.1814      0.1814      0.1814      0.1814      0.1814      0.1814      0.1814      0.1814      0.1814    
       0.1814      0.1814      0.1814      0.1814      0.1814      0.1814      0.1814      0.1814      0.1814      0.1814    
       0.1814      0.1814      0.1814      0.1814      0.1814      0.1814      0.1814      0.1814      0.1814      0.1814    
       0.1814      0.1814      0.1814      0.1814      0.1814      0.1814      0.1814      0.1814      0.1814      0.1814    
       0.1814      0.1814      0.1814      0.1814      0.1814      0.1814      0.1814      0.1814      0.1814      0.1814    
       0.1814      0.1814      0.1814      0.1814      0.1814      0.1814      0.1814      0.1814      0.1814      0.1814    
       0.1814      0.1814      0.1814      0.1814      0.1814      0.1814      0.1814      0.1814      0.1814      0.1814    
       0.1814      0.1814      0.1814      0.1814      0.1814      0.1814      0.1814      0.1814      0.1814      0.1814    
       0.1814      0.1814      0.1814      0.1814      0.1814      0.1814      0.1814      0.1814      0.1814      0.1814    
       0.1814      0.1814      0.1814      0.1814      0.1814      0.1814      0.1814      0.1814      0.1814      0.1814    
       0.1814      0.1814      0.1814      0.1814      0.1814      0.1814    
  32   8.6400E-02  8.6400E-02  8.6400E-02  8.6400E-02  8.6400E-02  0.1814      0.1814      0.1814      0.1814      0.1814    
       0.3629      0.3629      0.3629      0.3629      0.1814      0.1814      0.1814      0.1814      0.1814      0.1814    
       0.1814      0.1814      0.1814      0.1814      0.1814      0.1814      0.1814      0.1814      0.1814      0.1814    
       0.1814      0.1814      0.1814      0.1814      0.1814      0.1814      0.1814      0.1814      0.1814      0.1814    
       0.1814      0.1814      0.1814      0.1814      0.1814      0.1814      0.1814      0.1814      0.1814      0.1814    
       0.1814      0.1814      0.1814      0.1814      0.1814      0.1814      0.1814      0.1814      0.1814      0.1814    
       0.1814      0.1814      0.1814      0.1814      0.1814      0.1814      0.1814      0.1814      0.1814      0.1814    
       0.1814      0.1814      0.1814      0.1814      0.1814      0.1814      0.1814      0.1814      0.1814      0.1814    
       0.1814      0.1814      0.1814      0.1814      0.1814      0.1814      0.1814      0.1814      0.1814      0.1814    
       0.1814      0.1814      0.1814      0.1814      0.1814      0.1814      0.1814      0.1814      0.1814      0.1814    
       0.1814      0.1814      0.1814      0.1814      0.1814      0.1814      0.1814      0.1814      0.1814      0.1814    
       0.1814      0.1814      0.1814      0.1814      0.1814      0.1814      0.1814      0.1814      0.1814      0.1814    
       0.1814      0.1814      0.1814      0.1814      0.1814      0.1814      0.1814      0.1814      0.1814      0.1814    
       0.1814      0.1814      0.1814      0.1814      0.1814      0.1814      0.1814      0.1814      0.1814      0.1814    
       0.1814      0.1814      0.1814      0.1814      0.1814      0.1814      0.1814      0.1814      0.1814      0.1814    
       0.1814      0.1814      0.1814      0.1814      0.1814      0.1814      0.1814      0.1814      0.1814      0.1814    
       0.1814      0.1814      0.1814      0.1814      0.1814      0.1814      0.1814      0.1814      0.1814      0.1814    
       0.1814      0.1814      0.1814      0.1814      0.1814      0.1814      0.1814      0.1814      0.1814      0.1814    
       0.1814      0.1814      0.1814      0.1814      0.1814      0.1814    
  33   8.6400E-02  8.6400E-02  8.6400E-02  8.6400E-02  8.6400E-02  0.1814      0.1814      0.1814      0.1814      0.1814    
       0.3629      0.3629      0.3629      0.3629      0.1814      0.1814      0.1814      0.1814      0.1814      0.1814    
       0.1814      0.1814      0.1814      0.1814      0.1814      0.1814      0.1814      0.1814      0.1814      0.1814    
       0.1814      0.1814      0.1814      0.1814      0.1814      0.1814      0.1814      0.1814      0.1814      0.1814    
       0.1814      0.1814      0.1814      0.1814      0.1814      0.1814      0.1814      0.1814      0.1814      0.1814    
       0.1814      0.1814      0.1814      0.1814      0.1814      0.1814      0.1814      0.1814      0.1814      0.1814    
       0.1814      0.1814      0.1814      0.1814      0.1814      0.1814      0.1814      0.1814      0.1814      0.1814    
       0.1814      0.1814      0.1814      0.1814      0.1814      0.1814      0.1814      0.1814      0.1814      0.1814    
       0.1814      0.1814      0.1814      0.1814      0.1814      0.1814      0.1814      0.1814      0.1814      0.1814    
       0.1814      0.1814      0.1814      0.1814      0.1814      0.1814      0.1814      0.1814      0.1814      0.1814    
       0.1814      0.1814      0.1814      0.1814      0.1814      0.1814      0.1814      0.1814      0.1814      0.1814    
       0.1814      0.1814      0.1814      0.1814      0.1814      0.1814      0.1814      0.1814      0.1814      0.1814    
       0.1814      0.1814      0.1814      0.1814      0.1814      0.1814      0.1814      0.1814      0.1814      0.1814    
       0.1814      0.1814      0.1814      0.1814      0.1814      0.1814      0.1814      0.1814      0.1814      0.1814    
       0.1814      0.1814      0.1814      0.1814      0.1814      0.1814      0.1814      0.1814      0.1814      0.1814    
       0.1814      0.1814      0.1814      0.1814      0.1814      0.1814      0.1814      0.1814      0.1814      0.1814    
       0.1814      0.1814      0.1814      0.1814      0.1814      0.1814      0.1814      0.1814      0.1814      0.1814    
       0.1814      0.1814      0.1814      0.1814      0.1814      0.1814      0.1814      0.1814      0.1814      0.1814    
       0.1814      0.1814      0.1814      0.1814      0.1814      0.1814    
  34   8.6400E-02  8.6400E-02  8.6400E-02  8.6400E-02  8.6400E-02  0.1814      0.1814      0.1814      0.1814      0.1814    
       0.3629      0.3629      0.3629      0.3629      0.1814      0.1814      0.1814      0.1814      0.1814      0.1814    
       0.1814      0.1814      0.1814      0.1814      0.1814      0.1814      0.1814      0.1814      0.1814      0.1814    
       0.1814      0.1814      0.1814      0.1814      0.1814      0.1814      0.1814      0.1814      0.1814      0.1814    
       0.1814      0.1814      0.1814      0.1814      0.1814      0.1814      0.1814      0.1814      0.1814      0.1814    
       0.1814      0.1814      0.1814      0.1814      0.1814      0.1814      0.1814      0.1814      0.1814      0.1814    
       0.1814      0.1814      0.1814      0.1814      0.1814      0.1814      0.1814      0.1814      0.1814      0.1814    
       0.1814      0.1814      0.1814      0.1814      0.1814      0.1814      0.1814      0.1814      0.1814      0.1814    
       0.1814      0.1814      0.1814      0.1814      0.1814      0.1814      0.1814      0.1814      0.1814      0.1814    
       0.1814      0.1814      0.1814      0.1814      0.1814      0.1814      0.1814      0.1814      0.1814      0.1814    
       0.1814      0.1814      0.1814      0.1814      0.1814      0.1814      0.1814      0.1814      0.1814      0.1814    
       0.1814      0.1814      0.1814      0.1814      0.1814      0.1814      0.1814      0.1814      0.1814      0.1814    
       0.1814      0.1814      0.1814      0.1814      0.1814      0.1814      0.1814      0.1814      0.1814      0.1814    
       0.1814      0.1814      0.1814      0.1814      0.1814      0.1814      0.1814      0.1814      0.1814      0.1814    
       0.1814      0.1814      0.1814      0.1814      0.1814      0.1814      0.1814      0.1814      0.1814      0.1814    
       0.1814      0.1814      0.1814      0.1814      0.1814      0.1814      0.1814      0.1814      0.1814      0.1814    
       0.1814      0.1814      0.1814      0.1814      0.1814      0.1814      0.1814      0.1814      0.1814      0.1814    
       0.1814      0.1814      0.1814      0.1814      0.1814      0.1814      0.1814      0.1814      0.1814      0.1814    
       0.1814      0.1814      0.1814      0.1814      0.1814      0.1814    
  35   8.6400E-02  8.6400E-02  8.6400E-02  8.6400E-02  8.6400E-02  8.6400E-02  0.1814      0.1814      0.1814      0.1814    
       0.3629      0.3629      0.3629      0.3629      0.1814      0.1814      0.1814      0.1814      0.1814      0.1814    
       0.1814      0.1814      0.1814      0.1814      0.1814      0.1814      0.1814      0.1814      0.1814      0.1814    
       0.1814      0.1814      0.1814      0.1814      0.1814      0.1814      0.1814      0.1814      0.1814      0.1814    
       0.1814      0.1814      0.1814      0.1814      0.1814      0.1814      0.1814      0.1814      0.1814      0.1814    
       0.1814      0.1814      0.1814      0.1814      0.1814      0.1814      0.1814      0.1814      0.1814      0.1814    
       0.1814      0.1814      0.1814      0.1814      0.1814      0.1814      0.1814      0.1814      0.1814      0.1814    
       0.1814      0.1814      0.1814      0.1814      0.1814      0.1814      0.1814      0.1814      0.1814      0.1814    
       0.1814      0.1814      0.1814      0.1814      0.1814      0.1814      0.1814      0.1814      0.1814      0.1814    
       0.1814      0.1814      0.1814      0.1814      0.1814      0.1814      0.1814      0.1814      0.1814      0.1814    
       0.1814      0.1814      0.1814      0.1814      0.1814      0.1814      0.1814      0.1814      0.1814      0.1814    
       0.1814      0.1814      0.1814      0.1814      0.1814      0.1814      0.1814      0.1814      0.1814      0.1814    
       0.1814      0.1814      0.1814      0.1814      0.1814      0.1814      0.1814      0.1814      0.1814      0.1814    
       0.1814      0.1814      0.1814      0.1814      0.1814      0.1814      0.1814      0.1814      0.1814      0.1814    
       0.1814      0.1814      0.1814      0.1814      0.1814      0.1814      0.1814      0.1814      0.1814      0.1814    
       0.1814      0.1814      0.1814      0.1814      0.1814      0.1814      0.1814      0.1814      0.1814      0.1814    
       0.1814      0.1814      0.1814      0.1814      0.1814      0.1814      0.1814      0.1814      0.1814      0.1814    
       0.1814      0.1814      0.1814      0.1814      0.1814      0.1814      0.1814      0.1814      0.1814      0.1814    
       0.1814      0.1814      0.1814      0.1814      0.1814      0.1814    
  36   8.6400E-02  8.6400E-02  8.6400E-02  8.6400E-02  8.6400E-02  8.6400E-02  0.1814      0.1814      0.1814      0.1814    
       0.3629      0.3629      0.3629      0.3629      0.1814      0.1814      0.1814      0.1814      0.1814      0.1814    
       0.1814      0.1814      0.1814      0.1814      0.1814      0.1814      0.1814      0.1814      0.1814      0.1814    
       0.1814      0.1814      0.1814      0.1814      0.1814      0.1814      0.1814      0.1814      0.1814      0.1814    
       0.1814      0.1814      0.1814      0.1814      0.1814      0.1814      0.1814      0.1814      0.1814      0.1814    
       0.1814      0.1814      0.1814      0.1814      0.1814      0.1814      0.1814      0.1814      0.1814      0.1814    
       0.1814      0.1814      0.1814      0.1814      0.1814      0.1814      0.1814      0.1814      0.1814      0.1814    
       0.1814      0.1814      0.1814      0.1814      0.1814      0.1814      0.1814      0.1814      0.1814      0.1814    
       0.1814      0.1814      0.1814      0.1814      0.1814      0.1814      0.1814      0.1814      0.1814      0.1814    
       0.1814      0.1814      0.1814      0.1814      0.1814      0.1814      0.1814      0.1814      0.1814      0.1814    
       0.1814      0.1814      0.1814      0.1814      0.1814      0.1814      0.1814      0.1814      0.1814      0.1814    
       0.1814      0.1814      0.1814      0.1814      0.1814      0.1814      0.1814      0.1814      0.1814      0.1814    
       0.1814      0.1814      0.1814      0.1814      0.1814      0.1814      0.1814      0.1814      0.1814      0.1814    
       0.1814      0.1814      0.1814      0.1814      0.1814      0.1814      0.1814      0.1814      0.1814      0.1814    
       0.1814      0.1814      0.1814      0.1814      0.1814      0.1814      0.1814      0.1814      0.1814      0.1814    
       0.1814      0.1814      0.1814      0.1814      0.1814      0.1814      0.1814      0.1814      0.1814      0.1814    
       0.1814      0.1814      0.1814      0.1814      0.1814      0.1814      0.1814      0.1814      0.1814      0.1814    
       0.1814      0.1814      0.1814      0.1814      0.1814      0.1814      0.1814      0.1814      0.1814      0.1814    
       0.1814      0.1814      0.1814      0.1814      0.1814      0.1814    
  37   8.6400E-02  8.6400E-02  8.6400E-02  8.6400E-02  8.6400E-02  8.6400E-02  0.1814      0.1814      0.1814      0.1814    
       0.3629      0.3629      0.3629      0.3629      0.1814      0.1814      0.1814      0.1814      0.1814      0.1814    
       0.1814      0.1814      0.1814      0.1814      0.1814      0.1814      0.1814      0.1814      0.1814      0.1814    
       0.1814      0.1814      0.1814      0.1814      0.1814      0.1814      0.1814      0.1814      0.1814      0.1814    
       0.1814      0.1814      0.1814      0.1814      0.1814      0.1814      0.1814      0.1814      0.1814      0.1814    
       0.1814      0.1814      0.1814      0.1814      0.1814      0.1814      0.1814      0.1814      0.1814      0.1814    
       0.1814      0.1814      0.1814      0.1814      0.1814      0.1814      0.1814      0.1814      0.1814      0.1814    
       0.1814      0.1814      0.1814      0.1814      0.1814      0.1814      0.1814      0.1814      0.1814      0.1814    
       0.1814      0.1814      0.1814      0.1814      0.1814      0.1814      0.1814      0.1814      0.1814      0.1814    
       0.1814      0.1814      0.1814      0.1814      0.1814      0.1814      0.1814      0.1814      0.1814      0.1814    
       0.1814      0.1814      0.1814      0.1814      0.1814      0.1814      0.1814      0.1814      0.1814      0.1814    
       0.1814      0.1814      0.1814      0.1814      0.1814      0.1814      0.1814      0.1814      0.1814      0.1814    
       0.1814      0.1814      0.1814      0.1814      0.1814      0.1814      0.1814      0.1814      0.1814      0.1814    
       0.1814      0.1814      0.1814      0.1814      0.1814      0.1814      0.1814      0.1814      0.1814      0.1814    
       0.1814      0.1814      0.1814      0.1814      0.1814      0.1814      0.1814      0.1814      0.1814      0.1814    
       0.1814      0.1814      0.1814      0.1814      0.1814      0.1814      0.1814      0.1814      0.1814      0.1814    
       0.1814      0.1814      0.1814      0.1814      0.1814      0.1814      0.1814      0.1814      0.1814      0.1814    
       0.1814      0.1814      0.1814      0.1814      0.1814      0.1814      0.1814      0.1814      0.1814      0.1814    
       0.1814      0.1814      0.1814      0.1814      0.1814      0.1814    
  38   8.6400E-02  8.6400E-02  8.6400E-02  8.6400E-02  8.6400E-02  8.6400E-02  0.1814      0.1814      0.1814      0.1814    
       0.3629      0.3629      0.3629      0.3629      0.3629      0.1814      0.1814      0.1814      0.1814      0.1814    
       0.1814      0.1814      0.1814      0.1814      0.1814      0.1814      0.1814      0.1814      0.1814      0.1814    
       0.1814      0.1814      0.1814      0.1814      0.1814      0.1814      0.1814      0.1814      0.1814      0.1814    
       0.1814      0.1814      0.1814      0.1814      0.1814      0.1814      0.1814      0.1814      0.1814      0.1814    
       0.1814      0.1814      0.1814      0.1814      0.1814      0.1814      0.1814      0.1814      0.1814      0.1814    
       0.1814      0.1814      0.1814      0.1814      0.1814      0.1814      0.1814      0.1814      0.1814      0.1814    
       0.1814      0.1814      0.1814      0.1814      0.1814      0.1814      0.1814      0.1814      0.1814      0.1814    
       0.1814      0.1814      0.1814      0.1814      0.1814      0.1814      0.1814      0.1814      0.1814      0.1814    
       0.1814      0.1814      0.1814      0.1814      0.1814      0.1814      0.1814      0.1814      0.1814      0.1814    
       0.1814      0.1814      0.1814      0.1814      0.1814      0.1814      0.1814      0.1814      0.1814      0.1814    
       0.1814      0.1814      0.1814      0.1814      0.1814      0.1814      0.1814      0.1814      0.1814      0.1814    
       0.1814      0.1814      0.1814      0.1814      0.1814      0.1814      0.1814      0.1814      0.1814      0.1814    
       0.1814      0.1814      0.1814      0.1814      0.1814      0.1814      0.1814      0.1814      0.1814      0.1814    
       0.1814      0.1814      0.1814      0.1814      0.1814      0.1814      0.1814      0.1814      0.1814      0.1814    
       0.1814      0.1814      0.1814      0.1814      0.1814      0.1814      0.1814      0.1814      0.1814      0.1814    
       0.1814      0.1814      0.1814      0.1814      0.1814      0.1814      0.1814      0.1814      0.1814      0.1814    
       0.1814      0.1814      0.1814      0.1814      0.1814      0.1814      0.1814      0.1814      0.1814      0.1814    
       0.1814      0.1814      0.1814      0.1814      0.1814      0.1814    
  39   8.6400E-02  8.6400E-02  8.6400E-02  8.6400E-02  8.6400E-02  8.6400E-02  8.6400E-02  0.1814      0.1814      0.1814    
       0.3629      0.3629      0.3629      0.3629      0.3629      0.1814      0.1814      0.1814      0.1814      0.1814    
       0.1814      0.1814      0.1814      0.1814      0.1814      0.1814      0.1814      0.1814      0.1814      0.1814    
       0.1814      0.1814      0.1814      0.1814      0.1814      0.1814      0.1814      0.1814      0.1814      0.1814    
       0.1814      0.1814      0.1814      0.1814      0.1814      0.1814      0.1814      0.1814      0.1814      0.1814    
       0.1814      0.1814      0.1814      0.1814      0.1814      0.1814      0.1814      0.1814      0.1814      0.1814    
       0.1814      0.1814      0.1814      0.1814      0.1814      0.1814      0.1814      0.1814      0.1814      0.1814    
       0.1814      0.1814      0.1814      0.1814      0.1814      0.1814      0.1814      0.1814      0.1814      0.1814    
       0.1814      0.1814      0.1814      0.1814      0.1814      0.1814      0.1814      0.1814      0.1814      0.1814    
       0.1814      0.1814      0.1814      0.1814      0.1814      0.1814      0.1814      0.1814      0.1814      0.1814    
       0.1814      0.1814      0.1814      0.1814      0.1814      0.1814      0.1814      0.1814      0.1814      0.1814    
       0.1814      0.1814      0.1814      0.1814      0.1814      0.1814      0.1814      0.1814      0.1814      0.1814    
       0.1814      0.1814      0.1814      0.1814      0.1814      0.1814      0.1814      0.1814      0.1814      0.1814    
       0.1814      0.1814      0.1814      0.1814      0.1814      0.1814      0.1814      0.1814      0.1814      0.1814    
       0.1814      0.1814      0.1814      0.1814      0.1814      0.1814      0.1814      0.1814      0.1814      0.1814    
       0.1814      0.1814      0.1814      0.1814      0.1814      0.1814      0.1814      0.1814      0.1814      0.1814    
       0.1814      0.1814      0.1814      0.1814      0.1814      0.1814      0.1814      0.1814      0.1814      0.1814    
       0.1814      0.1814      0.1814      0.1814      0.1814      0.1814      0.1814      0.1814      0.1814      0.1814    
       0.1814      0.1814      0.1814      0.1814      0.1814      0.1814    
  40   8.6400E-02  8.6400E-02  8.6400E-02  8.6400E-02  8.6400E-02  8.6400E-02  8.6400E-02  0.1814      0.1814      0.1814    
       0.1814      0.3629      0.3629      0.3629      0.3629      0.1814      0.1814      0.1814      0.1814      0.1814    
       0.1814      0.1814      0.1814      0.1814      0.1814      0.1814      0.1814      0.1814      0.1814      0.1814    
       0.1814      0.1814      0.1814      0.1814      0.1814      0.1814      0.1814      0.1814      0.1814      0.1814    
       0.1814      0.1814      0.1814      0.1814      0.1814      0.1814      0.1814      0.1814      0.1814      0.1814    
       0.1814      0.1814      0.1814      0.1814      0.1814      0.1814      0.1814      0.1814      0.1814      0.1814    
       0.1814      0.1814      0.1814      0.1814      0.1814      0.1814      0.1814      0.1814      0.1814      0.1814    
       0.1814      0.1814      0.1814      0.1814      0.1814      0.1814      0.1814      0.1814      0.1814      0.1814    
       0.1814      0.1814      0.1814      0.1814      0.1814      0.1814      0.1814      0.1814      0.1814      0.1814    
       0.1814      0.1814      0.1814      0.1814      0.1814      0.1814      0.1814      0.1814      0.1814      0.1814    
       0.1814      0.1814      0.1814      0.1814      0.1814      0.1814      0.1814      0.1814      0.1814      0.1814    
       0.1814      0.1814      0.1814      0.1814      0.1814      0.1814      0.1814      0.1814      0.1814      0.1814    
       0.1814      0.1814      0.1814      0.1814      0.1814      0.1814      0.1814      0.1814      0.1814      0.1814    
       0.1814      0.1814      0.1814      0.1814      0.1814      0.1814      0.1814      0.1814      0.1814      0.1814    
       0.1814      0.1814      0.1814      0.1814      0.1814      0.1814      0.1814      0.1814      0.1814      0.1814    
       0.1814      0.1814      0.1814      0.1814      0.1814      0.1814      0.1814      0.1814      0.1814      0.1814    
       0.1814      0.1814      0.1814      0.1814      0.1814      0.1814      0.1814      0.1814      0.1814      0.1814    
       0.1814      0.1814      0.1814      0.1814      0.1814      0.1814      0.1814      0.1814      0.1814      0.1814    
       0.1814      0.1814      0.1814      0.1814      0.1814      0.1814    
  41   8.6400E-02  8.6400E-02  8.6400E-02  8.6400E-02  8.6400E-02  8.6400E-02  8.6400E-02  0.1814      0.1814      0.1814    
       0.1814      0.3629      0.3629      0.3629      0.3629      0.1814      0.1814      0.1814      0.1814      0.1814    
       0.1814      0.1814      0.1814      0.1814      0.1814      0.1814      0.1814      0.1814      0.1814      0.1814    
       0.1814      0.1814      0.1814      0.1814      0.1814      0.1814      0.1814      0.1814      0.1814      0.1814    
       0.1814      0.1814      0.1814      0.1814      0.1814      0.1814      0.1814      0.1814      0.1814      0.1814    
       0.1814      0.1814      0.1814      0.1814      0.1814      0.1814      0.1814      0.1814      0.1814      0.1814    
       0.1814      0.1814      0.1814      0.1814      0.1814      0.1814      0.1814      0.1814      0.1814      0.1814    
       0.1814      0.1814      0.1814      0.1814      0.1814      0.1814      0.1814      0.1814      0.1814      0.1814    
       0.1814      0.1814      0.1814      0.1814      0.1814      0.1814      0.1814      0.1814      0.1814      0.1814    
       0.1814      0.1814      0.1814      0.1814      0.1814      0.1814      0.1814      0.1814      0.1814      0.1814    
       0.1814      0.1814      0.1814      0.1814      0.1814      0.1814      0.1814      0.1814      0.1814      0.1814    
       0.1814      0.1814      0.1814      0.1814      0.1814      0.1814      0.1814      0.1814      0.1814      0.1814    
       0.1814      0.1814      0.1814      0.1814      0.1814      0.1814      0.1814      0.1814      0.1814      0.1814    
       0.1814      0.1814      0.1814      0.1814      0.1814      0.1814      0.1814      0.1814      0.1814      0.1814    
       0.1814      0.1814      0.1814      0.1814      0.1814      0.1814      0.1814      0.1814      0.1814      0.1814    
       0.1814      0.1814      0.1814      0.1814      0.1814      0.1814      0.1814      0.1814      0.1814      0.1814    
       0.1814      0.1814      0.1814      0.1814      0.1814      0.1814      0.1814      0.1814      0.1814      0.1814    
       0.1814      0.1814      0.1814      0.1814      0.1814      0.1814      0.1814      0.1814      0.1814      0.1814    
       0.1814      0.1814      0.1814      0.1814      0.1814      0.1814    
  42   8.6400E-02  8.6400E-02  8.6400E-02  8.6400E-02  8.6400E-02  8.6400E-02  8.6400E-02  0.1814      0.1814      0.1814    
       0.1814      0.3629      0.3629      0.3629      0.3629      0.3629      0.1814      0.1814      0.1814      0.1814    
       0.1814      0.1814      0.1814      0.1814      0.1814      0.1814      0.1814      0.1814      0.1814      0.1814    
       0.1814      0.1814      0.1814      0.1814      0.1814      0.1814      0.1814      0.1814      0.1814      0.1814    
       0.1814      0.1814      0.1814      0.1814      0.1814      0.1814      0.1814      0.1814      0.1814      0.1814    
       0.1814      0.1814      0.1814      0.1814      0.1814      0.1814      0.1814      0.1814      0.1814      0.1814    
       0.1814      0.1814      0.1814      0.1814      0.1814      0.1814      0.1814      0.1814      0.1814      0.1814    
       0.1814      0.1814      0.1814      0.1814      0.1814      0.1814      0.1814      0.1814      0.1814      0.1814    
       0.1814      0.1814      0.1814      0.1814      0.1814      0.1814      0.1814      0.1814      0.1814      0.1814    
       0.1814      0.1814      0.1814      0.1814      0.1814      0.1814      0.1814      0.1814      0.1814      0.1814    
       0.1814      0.1814      0.1814      0.1814      0.1814      0.1814      0.1814      0.1814      0.1814      0.1814    
       0.1814      0.1814      0.1814      0.1814      0.1814      0.1814      0.1814      0.1814      0.1814      0.1814    
       0.1814      0.1814      0.1814      0.1814      0.1814      0.1814      0.1814      0.1814      0.1814      0.1814    
       0.1814      0.1814      0.1814      0.1814      0.1814      0.1814      0.1814      0.1814      0.1814      0.1814    
       0.1814      0.1814      0.1814      0.1814      0.1814      0.1814      0.1814      0.1814      0.1814      0.1814    
       0.1814      0.1814      0.1814      0.1814      0.1814      0.1814      0.1814      0.1814      0.1814      0.1814    
       0.1814      0.1814      0.1814      0.1814      0.1814      0.1814      0.1814      0.1814      0.1814      0.1814    
       0.1814      0.1814      0.1814      0.1814      0.1814      0.1814      0.1814      0.1814      0.1814      0.1814    
       0.1814      0.1814      0.1814      0.1814      0.1814      0.1814    
  43   8.6400E-02  8.6400E-02  8.6400E-02  8.6400E-02  8.6400E-02  8.6400E-02  8.6400E-02  8.6400E-02  0.1814      0.1814    
       0.1814      0.1814      0.3629      0.3629      0.3629      0.3629      0.1814      0.1814      0.1814      0.1814    
       0.1814      0.1814      0.1814      0.1814      0.1814      0.1814      0.1814      0.1814      0.1814      0.1814    
       0.1814      0.1814      0.1814      0.1814      0.1814      0.1814      0.1814      0.1814      0.1814      0.1814    
       0.1814      0.1814      0.1814      0.1814      0.1814      0.1814      0.1814      0.1814      0.1814      0.1814    
       0.1814      0.1814      0.1814      0.1814      0.1814      0.1814      0.1814      0.1814      0.1814      0.1814    
       0.1814      0.1814      0.1814      0.1814      0.1814      0.1814      0.1814      0.1814      0.1814      0.1814    
       0.1814      0.1814      0.1814      0.1814      0.1814      0.1814      0.1814      0.1814      0.1814      0.1814    
       0.1814      0.1814      0.1814      0.1814      0.1814      0.1814      0.1814      0.1814      0.1814      0.1814    
       0.1814      0.1814      0.1814      0.1814      0.1814      0.1814      0.1814      0.1814      0.1814      0.1814    
       0.1814      0.1814      0.1814      0.1814      0.1814      0.1814      0.1814      0.1814      0.1814      0.1814    
       0.1814      0.1814      0.1814      0.1814      0.1814      0.1814      0.1814      0.1814      0.1814      0.1814    
       0.1814      0.1814      0.1814      0.1814      0.1814      0.1814      0.1814      0.1814      0.1814      0.1814    
       0.1814      0.1814      0.1814      0.1814      0.1814      0.1814      0.1814      0.1814      0.1814      0.1814    
       0.1814      0.1814      0.1814      0.1814      0.1814      0.1814      0.1814      0.1814      0.1814      0.1814    
       0.1814      0.1814      0.1814      0.1814      0.1814      0.1814      0.1814      0.1814      0.1814      0.1814    
       0.1814      0.1814      0.1814      0.1814      0.1814      0.1814      0.1814      0.1814      0.1814      0.1814    
       0.1814      0.1814      0.1814      0.1814      0.1814      0.1814      0.1814      0.1814      0.1814      0.1814    
       0.1814      0.1814      0.1814      0.1814      0.1814      0.1814    
  44   8.6400E-02  8.6400E-02  8.6400E-02  8.6400E-02  8.6400E-02  8.6400E-02  8.6400E-02  8.6400E-02  0.1814      0.1814    
       0.1814      0.1814      0.3629      0.3629      0.3629      0.3629      0.1814      0.1814      0.1814      0.1814    
       0.1814      0.1814      0.1814      0.1814      0.1814      0.1814      0.1814      0.1814      0.1814      0.1814    
       0.1814      0.1814      0.1814      0.1814      0.1814      0.1814      0.1814      0.1814      0.1814      0.1814    
       0.1814      0.1814      0.1814      0.1814      0.1814      0.1814      0.1814      0.1814      0.1814      0.1814    
       0.1814      0.1814      0.1814      0.1814      0.1814      0.1814      0.1814      0.1814      0.1814      0.1814    
       0.1814      0.1814      0.1814      0.1814      0.1814      0.1814      0.1814      0.1814      0.1814      0.1814    
       0.1814      0.1814      0.1814      0.1814      0.1814      0.1814      0.1814      0.1814      0.1814      0.1814    
       0.1814      0.1814      0.1814      0.1814      0.1814      0.1814      0.1814      0.1814      0.1814      0.1814    
       0.1814      0.1814      0.1814      0.1814      0.1814      0.1814      0.1814      0.1814      0.1814      0.1814    
       0.1814      0.1814      0.1814      0.1814      0.1814      0.1814      0.1814      0.1814      0.1814      0.1814    
       0.1814      0.1814      0.1814      0.1814      0.1814      0.1814      0.1814      0.1814      0.1814      0.1814    
       0.1814      0.1814      0.1814      0.1814      0.1814      0.1814      0.1814      0.1814      0.1814      0.1814    
       0.1814      0.1814      0.1814      0.1814      0.1814      0.1814      0.1814      0.1814      0.1814      0.1814    
       0.1814      0.1814      0.1814      0.1814      0.1814      0.1814      0.1814      0.1814      0.1814      0.1814    
       0.1814      0.1814      0.1814      0.1814      0.1814      0.1814      0.1814      0.1814      0.1814      0.1814    
       0.1814      0.1814      0.1814      0.1814      0.1814      0.1814      0.1814      0.1814      0.1814      0.1814    
       0.1814      0.1814      0.1814      0.1814      0.1814      0.1814      0.1814      0.1814      0.1814      0.1814    
       0.1814      0.1814      0.1814      0.1814      0.1814      0.1814    
  45   8.6400E-02  8.6400E-02  8.6400E-02  8.6400E-02  8.6400E-02  8.6400E-02  8.6400E-02  8.6400E-02  0.1814      0.1814    
       0.1814      0.1814      0.3629      0.3629      0.3629      0.3629      0.3629      0.1814      0.1814      0.1814    
       0.1814      0.1814      0.1814      0.1814      0.1814      0.1814      0.1814      0.1814      0.1814      0.1814    
       0.1814      0.1814      0.1814      0.1814      0.1814      0.1814      0.1814      0.1814      0.1814      0.1814    
       0.1814      0.1814      0.1814      0.1814      0.1814      0.1814      0.1814      0.1814      0.1814      0.1814    
       0.1814      0.1814      0.1814      0.1814      0.1814      0.1814      0.1814      0.1814      0.1814      0.1814    
       0.1814      0.1814      0.1814      0.1814      0.1814      0.1814      0.1814      0.1814      0.1814      0.1814    
       0.1814      0.1814      0.1814      0.1814      0.1814      0.1814      0.1814      0.1814      0.1814      0.1814    
       0.1814      0.1814      0.1814      0.1814      0.1814      0.1814      0.1814      0.1814      0.1814      0.1814    
       0.1814      0.1814      0.1814      0.1814      0.1814      0.1814      0.1814      0.1814      0.1814      0.1814    
       0.1814      0.1814      0.1814      0.1814      0.1814      0.1814      0.1814      0.1814      0.1814      0.1814    
       0.1814      0.1814      0.1814      0.1814      0.1814      0.1814      0.1814      0.1814      0.1814      0.1814    
       0.1814      0.1814      0.1814      0.1814      0.1814      0.1814      0.1814      0.1814      0.1814      0.1814    
       0.1814      0.1814      0.1814      0.1814      0.1814      0.1814      0.1814      0.1814      0.1814      0.1814    
       0.1814      0.1814      0.1814      0.1814      0.1814      0.1814      0.1814      0.1814      0.1814      0.1814    
       0.1814      0.1814      0.1814      0.1814      0.1814      0.1814      0.1814      0.1814      0.1814      0.1814    
       0.1814      0.1814      0.1814      0.1814      0.1814      0.1814      0.1814      0.1814      0.1814      0.1814    
       0.1814      0.1814      0.1814      0.1814      0.1814      0.1814      0.1814      0.1814      0.1814      0.1814    
       0.1814      0.1814      0.1814      0.1814      0.1814      0.1814    
  46   8.6400E-02  8.6400E-02  8.6400E-02  8.6400E-02  8.6400E-02  8.6400E-02  8.6400E-02  8.6400E-02  0.1814      0.1814    
       0.1814      0.1814      0.3629      0.3629      0.3629      0.3629      0.3629      0.1814      0.1814      0.1814    
       0.1814      0.1814      0.1814      0.1814      0.1814      0.1814      0.1814      0.1814      0.1814      0.1814    
       0.1814      0.1814      0.1814      0.1814      0.1814      0.1814      0.1814      0.1814      0.1814      0.1814    
       0.1814      0.1814      0.1814      0.1814      0.1814      0.1814      0.1814      0.1814      0.1814      0.1814    
       0.1814      0.1814      0.1814      0.1814      0.1814      0.1814      0.1814      0.1814      0.1814      0.1814    
       0.1814      0.1814      0.1814      0.1814      0.1814      0.1814      0.1814      0.1814      0.1814      0.1814    
       0.1814      0.1814      0.1814      0.1814      0.1814      0.1814      0.1814      0.1814      0.1814      0.1814    
       0.1814      0.1814      0.1814      0.1814      0.1814      0.1814      0.1814      0.1814      0.1814      0.1814    
       0.1814      0.1814      0.1814      0.1814      0.1814      0.1814      0.1814      0.1814      0.1814      0.1814    
       0.1814      0.1814      0.1814      0.1814      0.1814      0.1814      0.1814      0.1814      0.1814      0.1814    
       0.1814      0.1814      0.1814      0.1814      0.1814      0.1814      0.1814      0.1814      0.1814      0.1814    
       0.1814      0.1814      0.1814      0.1814      0.1814      0.1814      0.1814      0.1814      0.1814      0.1814    
       0.1814      0.1814      0.1814      0.1814      0.1814      0.1814      0.1814      0.1814      0.1814      0.1814    
       0.1814      0.1814      0.1814      0.1814      0.1814      0.1814      0.1814      0.1814      0.1814      0.1814    
       0.1814      0.1814      0.1814      0.1814      0.1814      0.1814      0.1814      0.1814      0.1814      0.1814    
       0.1814      0.1814      0.1814      0.1814      0.1814      0.1814      0.1814      0.1814      0.1814      0.1814    
       0.1814      0.1814      0.1814      0.1814      0.1814      0.1814      0.1814      0.1814      0.1814      0.1814    
       0.1814      0.1814      0.1814      0.1814      0.1814      0.1814    
  47   8.6400E-02  8.6400E-02  8.6400E-02  8.6400E-02  8.6400E-02  8.6400E-02  8.6400E-02  8.6400E-02  0.1814      0.1814    
       0.1814      0.1814      0.3629      0.3629      0.3629      0.3629      0.3629      0.3629      0.1814      0.1814    
       0.1814      0.1814      0.1814      0.1814      0.1814      0.1814      0.1814      0.1814      0.1814      0.1814    
       0.1814      0.1814      0.1814      0.1814      0.1814      0.1814      0.1814      0.1814      0.1814      0.1814    
       0.1814      0.1814      0.1814      0.1814      0.1814      0.1814      0.1814      0.1814      0.1814      0.1814    
       0.1814      0.1814      0.1814      0.1814      0.1814      0.1814      0.1814      0.1814      0.1814      0.1814    
       0.1814      0.1814      0.1814      0.1814      0.1814      0.1814      0.1814      0.1814      0.1814      0.1814    
       0.1814      0.1814      0.1814      0.1814      0.1814      0.1814      0.1814      0.1814      0.1814      0.1814    
       0.1814      0.1814      0.1814      0.1814      0.1814      0.1814      0.1814      0.1814      0.1814      0.1814    
       0.1814      0.1814      0.1814      0.1814      0.1814      0.1814      0.1814      0.1814      0.1814      0.1814    
       0.1814      0.1814      0.1814      0.1814      0.1814      0.1814      0.1814      0.1814      0.1814      0.1814    
       0.1814      0.1814      0.1814      0.1814      0.1814      0.1814      0.1814      0.1814      0.1814      0.1814    
       0.1814      0.1814      0.1814      0.1814      0.1814      0.1814      0.1814      0.1814      0.1814      0.1814    
       0.1814      0.1814      0.1814      0.1814      0.1814      0.1814      0.1814      0.1814      0.1814      0.1814    
       0.1814      0.1814      0.1814      0.1814      0.1814      0.1814      0.1814      0.1814      0.1814      0.1814    
       0.1814      0.1814      0.1814      0.1814      0.1814      0.1814      0.1814      0.1814      0.1814      0.1814    
       0.1814      0.1814      0.1814      0.1814      0.1814      0.1814      0.1814      0.1814      0.1814      0.1814    
       0.1814      0.1814      0.1814      0.1814      0.1814      0.1814      0.1814      0.1814      0.1814      0.1814    
       0.1814      0.1814      0.1814      0.1814      0.1814      0.1814    
  48   8.6400E-02  8.6400E-02  8.6400E-02  8.6400E-02  8.6400E-02  8.6400E-02  8.6400E-02  8.6400E-02  8.6400E-02  0.1814    
       0.1814      0.1814      0.1814      0.3629      0.3629      0.3629      0.3629      0.3629      0.1814      0.1814    
       0.1814      0.1814      0.1814      0.1814      0.1814      0.1814      0.1814      0.1814      0.1814      0.1814    
       0.1814      0.1814      0.1814      0.1814      0.1814      0.1814      0.1814      0.1814      0.1814      0.1814    
       0.1814      0.1814      0.1814      0.1814      0.1814      0.1814      0.1814      0.1814      0.1814      0.1814    
       0.1814      0.1814      0.1814      0.1814      0.1814      0.1814      0.1814      0.1814      0.1814      0.1814    
       0.1814      0.1814      0.1814      0.1814      0.1814      0.1814      0.1814      0.1814      0.1814      0.1814    
       0.1814      0.1814      0.1814      0.1814      0.1814      0.1814      0.1814      0.1814      0.1814      0.1814    
       0.1814      0.1814      0.1814      0.1814      0.1814      0.1814      0.1814      0.1814      0.1814      0.1814    
       0.1814      0.1814      0.1814      0.1814      0.1814      0.1814      0.1814      0.1814      0.1814      0.1814    
       0.1814      0.1814      0.1814      0.1814      0.1814      0.1814      0.1814      0.1814      0.1814      0.1814    
       0.1814      0.1814      0.1814      0.1814      0.1814      0.1814      0.1814      0.1814      0.1814      0.1814    
       0.1814      0.1814      0.1814      0.1814      0.1814      0.1814      0.1814      0.1814      0.1814      0.1814    
       0.1814      0.1814      0.1814      0.1814      0.1814      0.1814      0.1814      0.1814      0.1814      0.1814    
       0.1814      0.1814      0.1814      0.1814      0.1814      0.1814      0.1814      0.1814      0.1814      0.1814    
       0.1814      0.1814      0.1814      0.1814      0.1814      0.1814      0.1814      0.1814      0.1814      0.1814    
       0.1814      0.1814      0.1814      0.1814      0.1814      0.1814      0.1814      0.1814      0.1814      0.1814    
       0.1814      0.1814      0.1814      0.1814      0.1814      0.1814      0.1814      0.1814      0.1814      0.1814    
       0.1814      0.1814      0.1814      0.1814      0.1814      0.1814    
  49   8.6400E-02  8.6400E-02  8.6400E-02  8.6400E-02  8.6400E-02  8.6400E-02  8.6400E-02  8.6400E-02  8.6400E-02  0.1814    
       0.1814      0.1814      0.1814      0.3629      0.3629      0.3629      0.3629      0.3629      0.3629      0.1814    
       0.1814      0.1814      0.1814      0.1814      0.1814      0.1814      0.1814      0.1814      0.1814      0.1814    
       0.1814      0.1814      0.1814      0.1814      0.1814      0.1814      0.1814      0.1814      0.1814      0.1814    
       0.1814      0.1814      0.1814      0.1814      0.1814      0.1814      0.1814      0.1814      0.1814      0.1814    
       0.1814      0.1814      0.1814      0.1814      0.1814      0.1814      0.1814      0.1814      0.1814      0.1814    
       0.1814      0.1814      0.1814      0.1814      0.1814      0.1814      0.1814      0.1814      0.1814      0.1814    
       0.1814      0.1814      0.1814      0.1814      0.1814      0.1814      0.1814      0.1814      0.1814      0.1814    
       0.1814      0.1814      0.1814      0.1814      0.1814      0.1814      0.1814      0.1814      0.1814      0.1814    
       0.1814      0.1814      0.1814      0.1814      0.1814      0.1814      0.1814      0.1814      0.1814      0.1814    
       0.1814      0.1814      0.1814      0.1814      0.1814      0.1814      0.1814      0.1814      0.1814      0.1814    
       0.1814      0.1814      0.1814      0.1814      0.1814      0.1814      0.1814      0.1814      0.1814      0.1814    
       0.1814      0.1814      0.1814      0.1814      0.1814      0.1814      0.1814      0.1814      0.1814      0.1814    
       0.1814      0.1814      0.1814      0.1814      0.1814      0.1814      0.1814      0.1814      0.1814      0.1814    
       0.1814      0.1814      0.1814      0.1814      0.1814      0.1814      0.1814      0.1814      0.1814      0.1814    
       0.1814      0.1814      0.1814      0.1814      0.1814      0.1814      0.1814      0.1814      0.1814      0.1814    
       0.1814      0.1814      0.1814      0.1814      0.1814      0.1814      0.1814      0.1814      0.1814      0.1814    
       0.1814      0.1814      0.1814      0.1814      0.1814      0.1814      0.1814      0.1814      0.1814      0.1814    
       0.1814      0.1814      0.1814      0.1814      8.6400E-02  8.6400E-02
  50   8.6400E-02  8.6400E-02  8.6400E-02  8.6400E-02  8.6400E-02  8.6400E-02  8.6400E-02  8.6400E-02  8.6400E-02  0.1814    
       0.1814      0.1814      0.1814      0.3629      0.3629      0.3629      0.3629      0.3629      0.3629      0.3629    
       0.1814      0.1814      0.1814      0.1814      0.1814      0.1814      0.1814      0.1814      0.1814      0.1814    
       0.1814      0.1814      0.1814      0.1814      0.1814      0.1814      0.1814      0.1814      0.1814      0.1814    
       0.1814      0.1814      0.1814      0.1814      0.1814      0.1814      0.1814      0.1814      0.1814      0.1814    
       0.1814      0.1814      0.1814      0.1814      0.1814      0.1814      0.1814      0.1814      0.1814      0.1814    
       0.1814      0.1814      0.1814      0.1814      0.1814      0.1814      0.1814      0.1814      0.1814      0.1814    
       0.1814      0.1814      0.1814      0.1814      0.1814      0.1814      0.1814      0.1814      0.1814      0.1814    
       0.1814      0.1814      0.1814      0.1814      0.1814      0.1814      0.1814      0.1814      0.1814      0.1814    
       0.1814      0.1814      0.1814      0.1814      0.1814      0.1814      0.1814      0.1814      0.1814      0.1814    
       0.1814      0.1814      0.1814      0.1814      0.1814      0.1814      0.1814      0.1814      0.1814      0.1814    
       0.1814      0.1814      0.1814      0.1814      0.1814      0.1814      0.1814      0.1814      0.1814      0.1814    
       0.1814      0.1814      0.1814      0.1814      0.1814      0.1814      0.1814      0.1814      0.1814      0.1814    
       0.1814      0.1814      0.1814      0.1814      0.1814      0.1814      0.1814      0.1814      0.1814      0.1814    
       0.1814      0.1814      0.1814      0.1814      0.1814      0.1814      0.1814      0.1814      0.1814      0.1814    
       0.1814      0.1814      0.1814      0.1814      0.1814      0.1814      0.1814      0.1814      0.1814      0.1814    
       0.1814      0.1814      0.1814      0.1814      0.1814      0.1814      0.1814      0.1814      0.1814      0.1814    
       0.1814      0.1814      0.1814      0.1814      0.1814      0.1814      0.1814      0.1814      0.1814      0.1814    
       0.1814      0.1814      0.1814      8.6400E-02  8.6400E-02  8.6400E-02
  51   8.6400E-02  8.6400E-02  8.6400E-02  8.6400E-02  8.6400E-02  8.6400E-02  8.6400E-02  8.6400E-02  8.6400E-02  0.1814    
       0.1814      0.1814      0.1814      0.3629      0.3629      0.3629      0.3629      0.3629      0.3629      0.3629    
       0.1814      0.1814      0.1814      0.1814      0.1814      0.1814      0.1814      0.1814      0.1814      0.1814    
       0.1814      0.1814      0.1814      0.1814      0.1814      0.1814      0.1814      0.1814      0.1814      0.1814    
       0.1814      0.1814      0.1814      0.1814      0.1814      0.1814      0.1814      0.1814      0.1814      0.1814    
       0.1814      0.1814      0.1814      0.1814      0.1814      0.1814      0.1814      0.1814      0.1814      0.1814    
       0.1814      0.1814      0.1814      0.1814      0.1814      0.1814      0.1814      0.1814      0.1814      0.1814    
       0.1814      0.1814      0.1814      0.1814      0.1814      0.1814      0.1814      0.1814      0.1814      0.1814    
       0.1814      0.1814      0.1814      0.1814      0.1814      0.1814      0.1814      0.1814      0.1814      0.1814    
       0.1814      0.1814      0.1814      0.1814      0.1814      0.1814      0.1814      0.1814      0.1814      0.1814    
       0.1814      0.1814      0.1814      0.1814      0.1814      0.1814      0.1814      0.1814      0.1814      0.1814    
       0.1814      0.1814      0.1814      0.1814      0.1814      0.1814      0.1814      0.1814      0.1814      0.1814    
       0.1814      0.1814      0.1814      0.1814      0.1814      0.1814      0.1814      0.1814      0.1814      0.1814    
       0.1814      0.1814      0.1814      0.1814      0.1814      0.1814      0.1814      0.1814      0.1814      0.1814    
       0.1814      0.1814      0.1814      0.1814      0.1814      0.1814      0.1814      0.1814      0.1814      0.1814    
       0.1814      0.1814      0.1814      0.1814      0.1814      0.1814      0.1814      0.1814      0.1814      0.1814    
       0.1814      0.1814      0.1814      0.1814      0.1814      0.1814      0.1814      0.1814      0.1814      0.1814    
       0.1814      0.1814      0.1814      0.1814      0.1814      0.1814      0.1814      0.1814      0.1814      0.1814    
       0.1814      0.1814      8.6400E-02  8.6400E-02  8.6400E-02  8.6400E-02
  52   8.6400E-02  8.6400E-02  8.6400E-02  8.6400E-02  8.6400E-02  8.6400E-02  8.6400E-02  8.6400E-02  8.6400E-02  8.6400E-02
       0.1814      0.1814      0.1814      0.1814      0.3629      0.3629      0.3629      0.3629      0.3629      0.3629    
       0.3629      0.1814      0.1814      0.1814      0.1814      0.1814      0.1814      0.1814      0.1814      0.1814    
       0.1814      0.1814      0.1814      0.1814      0.1814      0.1814      0.1814      0.1814      0.1814      0.1814    
       0.1814      0.1814      0.1814      0.1814      0.1814      0.1814      0.1814      0.1814      0.1814      0.1814    
       0.1814      0.1814      0.1814      0.1814      0.1814      0.1814      0.1814      0.1814      0.1814      0.1814    
       0.1814      0.1814      0.1814      0.1814      0.1814      0.1814      0.1814      0.1814      0.1814      0.1814    
       0.1814      0.1814      0.1814      0.1814      0.1814      0.1814      0.1814      0.1814      0.1814      0.1814    
       0.1814      0.1814      0.1814      0.1814      0.1814      0.1814      0.1814      0.1814      0.1814      0.1814    
       0.1814      0.1814      0.1814      0.1814      0.1814      0.1814      0.1814      0.1814      0.1814      0.1814    
       0.1814      0.1814      0.1814      0.1814      0.1814      0.1814      0.1814      0.1814      0.1814      0.1814    
       0.1814      0.1814      0.1814      0.1814      0.1814      0.1814      0.1814      0.1814      0.1814      0.1814    
       0.1814      0.1814      0.1814      0.1814      0.1814      0.1814      0.1814      0.1814      0.1814      0.1814    
       0.1814      0.1814      0.1814      0.1814      0.1814      0.1814      0.1814      0.1814      0.1814      0.1814    
       0.1814      0.1814      0.1814      0.1814      0.1814      0.1814      0.1814      0.1814      0.1814      0.1814    
       0.1814      0.1814      0.1814      0.1814      0.1814      0.1814      0.1814      0.1814      0.1814      0.1814    
       0.1814      0.1814      0.1814      0.1814      0.1814      0.1814      0.1814      0.1814      0.1814      0.1814    
       0.1814      0.1814      0.1814      0.1814      0.1814      0.1814      0.1814      0.1814      0.1814      0.1814    
       0.1814      8.6400E-02  8.6400E-02  8.6400E-02  8.6400E-02  8.6400E-02
  53   8.6400E-02  8.6400E-02  8.6400E-02  8.6400E-02  8.6400E-02  8.6400E-02  8.6400E-02  8.6400E-02  8.6400E-02  8.6400E-02
       0.1814      0.1814      0.1814      0.1814      0.3629      0.3629      0.3629      0.3629      0.3629      0.3629    
       0.3629      0.3629      0.1814      0.1814      0.1814      0.1814      0.1814      0.1814      0.1814      0.1814    
       0.1814      0.1814      0.1814      0.1814      0.1814      0.1814      0.1814      0.1814      0.1814      0.1814    
       0.1814      0.1814      0.1814      0.1814      0.1814      0.1814      0.1814      0.1814      0.1814      0.1814    
       0.1814      0.1814      0.1814      0.1814      0.1814      0.1814      0.1814      0.1814      0.1814      0.1814    
       0.1814      0.1814      0.1814      0.1814      0.1814      0.1814      0.1814      0.1814      0.1814      0.1814    
       0.1814      0.1814      0.1814      0.1814      0.1814      0.1814      0.1814      0.1814      0.1814      0.1814    
       0.1814      0.1814      0.1814      0.1814      0.1814      0.1814      0.1814      0.1814      0.1814      0.1814    
       0.1814      0.1814      0.1814      0.1814      0.1814      0.1814      0.1814      0.1814      0.1814      0.1814    
       0.1814      0.1814      0.1814      0.1814      0.1814      0.1814      0.1814      0.1814      0.1814      0.1814    
       0.1814      0.1814      0.1814      0.1814      0.1814      0.1814      0.1814      0.1814      0.1814      0.1814    
       0.1814      0.1814      0.1814      0.1814      0.1814      0.1814      0.1814      0.1814      0.1814      0.1814    
       0.1814      0.1814      0.1814      0.1814      0.1814      0.1814      0.1814      0.1814      0.1814      0.1814    
       0.1814      0.1814      0.1814      0.1814      0.1814      0.1814      0.1814      0.1814      0.1814      0.1814    
       0.1814      0.1814      0.1814      0.1814      0.1814      0.1814      0.1814      0.1814      0.1814      0.1814    
       0.1814      0.1814      0.1814      0.1814      0.1814      0.1814      0.1814      0.1814      0.1814      0.1814    
       0.1814      0.1814      0.1814      0.1814      0.1814      0.1814      0.1814      0.1814      0.1814      8.6400E-02
       8.6400E-02  8.6400E-02  8.6400E-02  8.6400E-02  8.6400E-02  8.6400E-02
  54   8.6400E-02  8.6400E-02  8.6400E-02  8.6400E-02  8.6400E-02  8.6400E-02  8.6400E-02  8.6400E-02  8.6400E-02  8.6400E-02
       0.1814      0.1814      0.1814      0.1814      0.3629      0.3629      0.3629      0.3629      0.3629      0.3629    
       0.3629      0.3629      0.1814      0.1814      0.1814      0.1814      0.1814      0.1814      0.1814      0.1814    
       0.1814      0.1814      0.1814      0.1814      0.1814      0.1814      0.1814      0.1814      0.1814      0.1814    
       0.1814      0.1814      0.1814      0.1814      0.1814      0.1814      0.1814      0.1814      0.1814      0.1814    
       0.1814      0.1814      0.1814      0.1814      0.1814      0.1814      0.1814      0.1814      0.1814      0.1814    
       0.1814      0.1814      0.1814      0.1814      0.1814      0.1814      0.1814      0.1814      0.1814      0.1814    
       0.1814      0.1814      0.1814      0.1814      0.1814      0.1814      0.1814      0.1814      0.1814      0.1814    
       0.1814      0.1814      0.1814      0.1814      0.1814      0.1814      0.1814      0.1814      0.1814      0.1814    
       0.1814      0.1814      0.1814      0.1814      0.1814      0.1814      0.1814      0.1814      0.1814      0.1814    
       0.1814      0.1814      0.1814      0.1814      0.1814      0.1814      0.1814      0.1814      0.1814      0.1814    
       0.1814      0.1814      0.1814      0.1814      0.1814      0.1814      0.1814      0.1814      0.1814      0.1814    
       0.1814      0.1814      0.1814      0.1814      0.1814      0.1814      0.1814      0.1814      0.1814      0.1814    
       0.1814      0.1814      0.1814      0.1814      0.1814      0.1814      0.1814      0.1814      0.1814      0.1814    
       0.1814      0.1814      0.1814      0.1814      0.1814      0.1814      0.1814      0.1814      0.1814      0.1814    
       0.1814      0.1814      0.1814      0.1814      0.1814      0.1814      0.1814      0.1814      0.1814      0.1814    
       0.1814      0.1814      0.1814      0.1814      0.1814      0.1814      0.1814      0.1814      0.1814      0.1814    
       0.1814      0.1814      0.1814      0.1814      0.1814      0.1814      0.1814      0.1814      0.1814      8.6400E-02
       8.6400E-02  8.6400E-02  8.6400E-02  8.6400E-02  8.6400E-02  8.6400E-02
  55   8.6400E-02  8.6400E-02  8.6400E-02  8.6400E-02  8.6400E-02  8.6400E-02  8.6400E-02  8.6400E-02  8.6400E-02  8.6400E-02
       0.1814      0.1814      0.1814      0.1814      0.1814      0.3629      0.3629      0.3629      0.3629      0.3629    
       0.3629      0.3629      0.3629      0.1814      0.1814      0.1814      0.1814      0.1814      0.1814      0.1814    
       0.1814      0.1814      0.1814      0.1814      0.1814      0.1814      0.1814      0.1814      0.1814      0.1814    
       0.1814      0.1814      0.1814      0.1814      0.1814      0.1814      0.1814      0.1814      0.1814      0.1814    
       0.1814      0.1814      0.1814      0.1814      0.1814      0.1814      0.1814      0.1814      0.1814      0.1814    
       0.1814      0.1814      0.1814      0.1814      0.1814      0.1814      0.1814      0.1814      0.1814      0.1814    
       0.1814      0.1814      0.1814      0.1814      0.1814      0.1814      0.1814      0.1814      0.1814      0.1814    
       0.1814      0.1814      0.1814      0.1814      0.1814      0.1814      0.1814      0.1814      0.1814      0.1814    
       0.1814      0.1814      0.1814      0.1814      0.1814      0.1814      0.1814      0.1814      0.1814      0.1814    
       0.1814      0.1814      0.1814      0.1814      0.1814      0.1814      0.1814      0.1814      0.1814      0.1814    
       0.1814      0.1814      0.1814      0.1814      0.1814      0.1814      0.1814      0.1814      0.1814      0.1814    
       0.1814      0.1814      0.1814      0.1814      0.1814      0.1814      8.6400E-02  8.6400E-02  8.6400E-02  8.6400E-02
       8.6400E-02  8.6400E-02  0.1814      0.1814      0.1814      0.1814      0.1814      0.1814      0.1814      0.1814    
       0.1814      0.1814      0.1814      0.1814      0.1814      0.1814      0.1814      0.1814      0.1814      0.1814    
       0.1814      0.1814      0.1814      0.1814      0.1814      0.1814      0.1814      0.1814      0.1814      0.1814    
       0.1814      0.1814      0.1814      0.1814      0.1814      0.1814      0.1814      0.1814      0.1814      0.1814    
       0.1814      0.1814      0.1814      0.1814      0.1814      0.1814      0.1814      0.1814      8.6400E-02  8.6400E-02
       8.6400E-02  8.6400E-02  8.6400E-02  8.6400E-02  8.6400E-02  8.6400E-02
  56   8.6400E-02  8.6400E-02  8.6400E-02  8.6400E-02  8.6400E-02  8.6400E-02  8.6400E-02  8.6400E-02  8.6400E-02  8.6400E-02
       0.1814      0.1814      0.1814      0.1814      0.1814      0.3629      0.3629      0.3629      0.3629      0.3629    
       0.3629      0.3629      0.3629      0.3629      0.1814      0.1814      0.1814      0.1814      0.1814      0.1814    
       0.1814      0.1814      0.1814      0.1814      0.1814      0.1814      0.1814      0.1814      0.1814      0.1814    
       0.1814      0.1814      0.1814      0.1814      0.1814      0.1814      0.1814      0.1814      0.1814      0.1814    
       0.1814      0.1814      0.1814      0.1814      0.1814      0.1814      0.1814      0.1814      0.1814      0.1814    
       0.1814      0.1814      0.1814      0.1814      0.1814      0.1814      0.1814      0.1814      0.1814      0.1814    
       0.1814      0.1814      0.1814      0.1814      0.1814      0.1814      0.1814      0.1814      0.1814      0.1814    
       0.1814      0.1814      0.1814      0.1814      0.1814      0.1814      0.1814      0.1814      0.1814      0.1814    
       0.1814      0.1814      0.1814      0.1814      0.1814      0.1814      0.1814      0.1814      0.1814      0.1814    
       0.1814      0.1814      0.1814      0.1814      0.1814      0.1814      0.1814      0.1814      0.1814      0.1814    
       0.1814      0.1814      0.1814      0.1814      0.1814      0.1814      0.1814      0.1814      0.1814      0.1814    
       0.1814      0.1814      0.1814      0.1814      8.6400E-02  8.6400E-02  8.6400E-02  8.6400E-02  8.6400E-02  8.6400E-02
       8.6400E-02  8.6400E-02  8.6400E-02  8.6400E-02  8.6400E-02  8.6400E-02  0.1814      0.1814      0.1814      0.1814    
       0.1814      0.1814      0.1814      0.1814      0.1814      0.1814      0.1814      0.1814      0.1814      0.1814    
       0.1814      0.1814      0.1814      0.1814      0.1814      0.1814      0.1814      0.1814      0.1814      0.1814    
       0.1814      0.1814      0.1814      0.1814      0.1814      0.1814      0.1814      0.1814      0.1814      0.1814    
       0.1814      0.1814      0.1814      0.1814      0.1814      0.1814      8.6400E-02  8.6400E-02  8.6400E-02  8.6400E-02
       8.6400E-02  8.6400E-02  8.6400E-02  8.6400E-02  8.6400E-02  8.6400E-02
  57   8.6400E-02  8.6400E-02  8.6400E-02  8.6400E-02  8.6400E-02  8.6400E-02  8.6400E-02  8.6400E-02  8.6400E-02  8.6400E-02
       0.1814      0.1814      0.1814      0.1814      0.1814      0.3629      0.3629      0.3629      0.3629      0.3629    
       0.3629      0.3629      0.3629      0.3629      0.1814      0.1814      0.1814      0.1814      0.1814      0.1814    
       0.1814      0.1814      0.1814      0.1814      0.1814      0.1814      0.1814      0.1814      0.1814      0.1814    
       0.1814      0.1814      0.1814      0.1814      0.1814      0.1814      0.1814      0.1814      0.1814      0.1814    
       0.1814      0.1814      0.1814      0.1814      0.1814      0.1814      0.1814      0.1814      0.1814      0.1814    
       0.1814      0.1814      0.1814      0.1814      0.1814      0.1814      0.1814      0.1814      0.1814      0.1814    
       0.1814      0.1814      0.1814      0.1814      0.1814      0.1814      0.1814      0.1814      0.1814      0.1814    
       0.1814      0.1814      0.1814      0.1814      0.1814      0.1814      0.1814      0.1814      0.1814      0.1814    
       0.1814      0.1814      0.1814      0.1814      0.1814      0.1814      0.1814      0.1814      0.1814      0.1814    
       0.1814      0.1814      0.1814      0.1814      0.1814      0.1814      0.1814      0.1814      0.1814      0.1814    
       0.1814      0.1814      0.1814      0.1814      0.1814      0.1814      0.1814      0.1814      0.1814      0.1814    
       0.1814      0.1814      0.1814      0.1814      8.6400E-02  8.6400E-02  8.6400E-02  8.6400E-02  8.6400E-02  8.6400E-02
       8.6400E-02  8.6400E-02  8.6400E-02  8.6400E-02  8.6400E-02  8.6400E-02  8.6400E-02  8.6400E-02  0.1814      0.1814    
       0.1814      0.1814      0.1814      0.1814      0.1814      0.1814      0.1814      0.1814      0.1814      0.1814    
       0.1814      0.1814      0.1814      0.1814      0.1814      0.1814      0.1814      0.1814      0.1814      0.1814    
       0.1814      0.1814      0.1814      0.1814      0.1814      0.1814      0.1814      0.1814      0.1814      0.1814    
       0.1814      0.1814      0.1814      0.1814      8.6400E-02  8.6400E-02  8.6400E-02  8.6400E-02  8.6400E-02  8.6400E-02
       8.6400E-02  8.6400E-02  8.6400E-02  8.6400E-02  8.6400E-02  8.6400E-02
  58   8.6400E-02  8.6400E-02  8.6400E-02  8.6400E-02  8.6400E-02  8.6400E-02  8.6400E-02  8.6400E-02  8.6400E-02  8.6400E-02
       8.6400E-02  0.1814      0.1814      0.1814      0.1814      0.1814      0.3629      0.3629      0.3629      0.3629    
       0.3629      0.3629      0.3629      0.3629      0.3629      0.1814      0.1814      0.1814      0.1814      0.1814    
       0.1814      0.1814      0.1814      0.1814      0.1814      0.1814      0.1814      0.1814      0.1814      0.1814    
       0.1814      0.1814      0.1814      0.1814      0.1814      0.1814      0.1814      0.1814      0.1814      0.1814    
       0.1814      0.1814      0.1814      0.1814      0.1814      0.1814      0.1814      0.1814      0.1814      0.1814    
       0.1814      0.1814      0.1814      0.1814      0.1814      0.1814      0.1814      0.1814      0.1814      0.1814    
       0.1814      0.1814      0.1814      0.1814      0.1814      0.1814      0.1814      0.1814      0.1814      0.1814    
       0.1814      0.1814      0.1814      0.1814      0.1814      0.1814      0.1814      0.1814      0.1814      0.1814    
       0.1814      0.1814      0.1814      0.1814      0.1814      0.1814      0.1814      0.1814      0.1814      0.1814    
       0.1814      0.1814      0.1814      0.1814      0.1814      0.1814      0.1814      0.1814      0.1814      0.1814    
       0.1814      0.1814      0.1814      0.1814      0.1814      0.1814      0.1814      0.1814      0.1814      0.1814    
       0.1814      0.1814      0.1814      0.1814      8.6400E-02  8.6400E-02  8.6400E-02  8.6400E-02  8.6400E-02  8.6400E-02
       8.6400E-02  8.6400E-02  8.6400E-02  8.6400E-02  8.6400E-02  8.6400E-02  8.6400E-02  8.6400E-02  8.6400E-02  8.6400E-02
       8.6400E-02  8.6400E-02  0.1814      0.1814      0.1814      0.1814      0.1814      0.1814      0.1814      0.1814    
       0.1814      0.1814      0.1814      0.1814      0.1814      0.1814      0.1814      0.1814      0.1814      0.1814    
       0.1814      0.1814      0.1814      0.1814      0.1814      0.1814      0.1814      0.1814      0.1814      0.1814    
       0.1814      0.1814      8.6400E-02  8.6400E-02  8.6400E-02  8.6400E-02  8.6400E-02  8.6400E-02  8.6400E-02  8.6400E-02
       8.6400E-02  8.6400E-02  8.6400E-02  8.6400E-02  8.6400E-02  8.6400E-02
  59   8.6400E-02  8.6400E-02  8.6400E-02  8.6400E-02  8.6400E-02  8.6400E-02  8.6400E-02  8.6400E-02  8.6400E-02  8.6400E-02
       8.6400E-02  0.1814      0.1814      0.1814      0.1814      0.1814      0.3629      0.3629      0.3629      0.3629    
       0.3629      0.3629      0.3629      0.3629      0.3629      0.1814      0.1814      0.1814      0.1814      0.1814    
       0.1814      0.1814      0.1814      0.1814      0.1814      0.1814      0.1814      0.1814      0.1814      0.1814    
       0.1814      0.1814      0.1814      0.1814      0.1814      0.1814      0.1814      0.1814      0.1814      0.1814    
       0.1814      0.1814      0.1814      0.1814      0.1814      0.1814      0.1814      0.1814      0.1814      0.1814    
       0.1814      0.1814      0.1814      0.1814      0.1814      0.1814      0.1814      0.1814      0.1814      0.1814    
       0.1814      0.1814      0.1814      0.1814      0.1814      0.1814      0.1814      0.1814      0.1814      0.1814    
       0.1814      0.1814      0.1814      0.1814      0.1814      0.1814      0.1814      0.1814      0.1814      0.1814    
       0.1814      0.1814      0.1814      0.1814      0.1814      0.1814      0.1814      0.1814      0.1814      0.1814    
       0.1814      0.1814      0.1814      0.1814      0.1814      0.1814      0.1814      0.1814      0.1814      0.1814    
       0.1814      0.1814      0.1814      0.1814      0.1814      0.1814      0.1814      0.1814      0.1814      0.1814    
       0.1814      0.1814      0.1814      8.6400E-02  8.6400E-02  8.6400E-02  8.6400E-02  8.6400E-02  8.6400E-02  8.6400E-02
       8.6400E-02  8.6400E-02  8.6400E-02  8.6400E-02  8.6400E-02  8.6400E-02  8.6400E-02  8.6400E-02  8.6400E-02  8.6400E-02
       8.6400E-02  8.6400E-02  8.6400E-02  8.6400E-02  8.6400E-02  8.6400E-02  8.6400E-02  8.6400E-02  8.6400E-02  8.6400E-02
       8.6400E-02  8.6400E-02  8.6400E-02  8.6400E-02  8.6400E-02  8.6400E-02  8.6400E-02  8.6400E-02  8.6400E-02  8.6400E-02
       8.6400E-02  8.6400E-02  8.6400E-02  8.6400E-02  8.6400E-02  8.6400E-02  8.6400E-02  8.6400E-02  8.6400E-02  8.6400E-02
       8.6400E-02  8.6400E-02  8.6400E-02  8.6400E-02  8.6400E-02  8.6400E-02  8.6400E-02  8.6400E-02  8.6400E-02  8.6400E-02
       8.6400E-02  8.6400E-02  8.6400E-02  8.6400E-02  8.6400E-02  8.6400E-02
  60   8.6400E-02  8.6400E-02  8.6400E-02  8.6400E-02  8.6400E-02  8.6400E-02  8.6400E-02  8.6400E-02  8.6400E-02  8.6400E-02
       8.6400E-02  0.1814      0.1814      0.1814      0.1814      0.1814      0.3629      0.3629      0.3629      0.3629    
       0.3629      0.3629      0.3629      0.3629      0.3629      0.3629      0.1814      0.1814      0.1814      0.1814    
       0.1814      0.1814      0.1814      0.1814      0.1814      0.1814      0.1814      0.1814      0.1814      0.1814    
       0.1814      0.1814      0.1814      0.1814      0.1814      0.1814      0.1814      0.1814      0.1814      0.1814    
       0.1814      0.1814      0.1814      0.1814      0.1814      0.1814      0.1814      0.1814      0.1814      0.1814    
       0.1814      0.1814      0.1814      0.1814      0.1814      0.1814      0.1814      0.1814      0.1814      0.1814    
       0.1814      0.1814      0.1814      0.1814      0.1814      0.1814      0.1814      0.1814      0.1814      0.1814    
       0.1814      0.1814      0.1814      0.1814      0.1814      0.1814      0.1814      0.1814      0.1814      0.1814    
       0.1814      0.1814      0.1814      0.1814      0.1814      0.1814      0.1814      0.1814      0.1814      0.1814    
       0.1814      0.1814      0.1814      0.1814      0.1814      0.1814      0.1814      0.1814      0.1814      0.1814    
       0.1814      0.1814      0.1814      0.1814      0.1814      0.1814      0.1814      0.1814      0.1814      0.1814    
       0.1814      0.1814      0.1814      8.6400E-02  8.6400E-02  8.6400E-02  8.6400E-02  8.6400E-02  8.6400E-02  8.6400E-02
       8.6400E-02  8.6400E-02  8.6400E-02  8.6400E-02  8.6400E-02  8.6400E-02  8.6400E-02  8.6400E-02  8.6400E-02  8.6400E-02
       8.6400E-02  8.6400E-02  8.6400E-02  8.6400E-02  8.6400E-02  8.6400E-02  8.6400E-02  8.6400E-02  8.6400E-02  8.6400E-02
       8.6400E-02  8.6400E-02  8.6400E-02  8.6400E-02  8.6400E-02  8.6400E-02  8.6400E-02  8.6400E-02  8.6400E-02  8.6400E-02
       8.6400E-02  8.6400E-02  8.6400E-02  8.6400E-02  8.6400E-02  8.6400E-02  8.6400E-02  8.6400E-02  8.6400E-02  8.6400E-02
       8.6400E-02  8.6400E-02  8.6400E-02  8.6400E-02  8.6400E-02  8.6400E-02  8.6400E-02  8.6400E-02  8.6400E-02  8.6400E-02
       8.6400E-02  8.6400E-02  8.6400E-02  8.6400E-02  8.6400E-02  8.6400E-02
  61   8.6400E-02  8.6400E-02  8.6400E-02  8.6400E-02  8.6400E-02  8.6400E-02  8.6400E-02  8.6400E-02  8.6400E-02  8.6400E-02
       8.6400E-02  0.1814      0.1814      0.1814      0.1814      0.1814      0.1814      0.3629      0.3629      0.3629    
       0.3629      0.3629      0.3629      0.3629      0.3629      0.3629      0.3629      0.1814      0.1814      0.1814    
       0.1814      0.1814      0.1814      0.1814      0.1814      0.1814      0.1814      0.1814      0.1814      0.1814    
       0.1814      0.1814      0.1814      0.1814      0.1814      0.1814      0.1814      0.1814      0.1814      0.1814    
       0.1814      0.1814      0.1814      0.1814      0.1814      0.1814      0.1814      0.1814      0.1814      0.1814    
       0.1814      0.1814      0.1814      0.1814      0.1814      0.1814      0.1814      0.1814      0.1814      0.1814    
       0.1814      0.1814      0.1814      0.1814      0.1814      0.1814      0.1814      0.1814      0.1814      0.1814    
       0.1814      0.1814      0.1814      0.1814      0.1814      0.1814      0.1814      0.1814      0.1814      0.1814    
       0.1814      0.1814      0.1814      0.1814      0.1814      0.1814      0.1814      0.1814      0.1814      0.1814    
       0.1814      0.1814      0.1814      0.1814      0.1814      0.1814      0.1814      0.1814      0.1814      0.1814    
       0.1814      0.1814      0.1814      0.1814      0.1814      0.1814      0.1814      0.1814      0.1814      0.1814    
       0.1814      0.1814      0.1814      8.6400E-02  8.6400E-02  8.6400E-02  8.6400E-02  8.6400E-02  8.6400E-02  8.6400E-02
       8.6400E-02  8.6400E-02  8.6400E-02  8.6400E-02  8.6400E-02  8.6400E-02  8.6400E-02  8.6400E-02  8.6400E-02  8.6400E-02
       8.6400E-02  8.6400E-02  8.6400E-02  8.6400E-02  8.6400E-02  8.6400E-02  8.6400E-02  8.6400E-02  8.6400E-02  8.6400E-02
       8.6400E-02  8.6400E-02  8.6400E-02  8.6400E-02  8.6400E-02  8.6400E-02  8.6400E-02  8.6400E-02  8.6400E-02  8.6400E-02
       8.6400E-02  8.6400E-02  8.6400E-02  8.6400E-02  8.6400E-02  8.6400E-02  8.6400E-02  8.6400E-02  8.6400E-02  8.6400E-02
       8.6400E-02  8.6400E-02  8.6400E-02  8.6400E-02  8.6400E-02  8.6400E-02  8.6400E-02  8.6400E-02  8.6400E-02  8.6400E-02
       8.6400E-02  8.6400E-02  8.6400E-02  8.6400E-02  8.6400E-02  8.6400E-02
  62   8.6400E-02  8.6400E-02  8.6400E-02  8.6400E-02  8.6400E-02  8.6400E-02  8.6400E-02  8.6400E-02  8.6400E-02  8.6400E-02
       8.6400E-02  0.1814      0.1814      0.1814      0.1814      0.1814      0.1814      0.3629      0.3629      0.3629    
       0.3629      0.3629      0.3629      0.3629      0.3629      0.3629      0.3629      0.1814      0.1814      0.1814    
       0.1814      0.1814      0.1814      0.1814      0.1814      0.1814      0.1814      0.1814      0.1814      0.1814    
       0.1814      0.1814      0.1814      0.1814      0.1814      0.1814      0.1814      0.1814      0.1814      0.1814    
       0.1814      0.1814      0.1814      0.1814      0.1814      0.1814      0.1814      0.1814      0.1814      0.1814    
       0.1814      0.1814      0.1814      0.1814      0.1814      0.1814      0.1814      0.1814      0.1814      0.1814    
       0.1814      0.1814      0.1814      0.1814      0.1814      0.1814      0.1814      0.1814      0.1814      0.1814    
       0.1814      0.1814      0.1814      0.1814      0.1814      0.1814      0.1814      0.1814      0.1814      0.1814    
       0.1814      0.1814      0.1814      0.1814      0.1814      0.1814      0.1814      0.1814      0.1814      0.1814    
       0.1814      0.1814      0.1814      0.1814      0.1814      0.1814      0.1814      0.1814      0.1814      0.1814    
       0.1814      0.1814      0.1814      0.1814      0.1814      0.1814      0.1814      0.1814      0.1814      0.1814    
       0.1814      0.1814      0.1814      8.6400E-02  8.6400E-02  8.6400E-02  8.6400E-02  8.6400E-02  8.6400E-02  8.6400E-02
       8.6400E-02  8.6400E-02  8.6400E-02  8.6400E-02  8.6400E-02  8.6400E-02  8.6400E-02  8.6400E-02  8.6400E-02  8.6400E-02
       8.6400E-02  8.6400E-02  8.6400E-02  8.6400E-02  8.6400E-02  8.6400E-02  8.6400E-02  8.6400E-02  8.6400E-02  8.6400E-02
       8.6400E-02  8.6400E-02  8.6400E-02  8.6400E-02  8.6400E-02  8.6400E-02  8.6400E-02  8.6400E-02  8.6400E-02  8.6400E-02
       8.6400E-02  8.6400E-02  8.6400E-02  8.6400E-02  8.6400E-02  8.6400E-02  8.6400E-02  8.6400E-02  8.6400E-02  8.6400E-02
       8.6400E-02  8.6400E-02  8.6400E-02  8.6400E-02  8.6400E-02  8.6400E-02  8.6400E-02  8.6400E-02  8.6400E-02  8.6400E-02
       8.6400E-02  8.6400E-02  8.6400E-02  8.6400E-02  8.6400E-02  8.6400E-02
  63   8.6400E-02  8.6400E-02  8.6400E-02  8.6400E-02  8.6400E-02  8.6400E-02  8.6400E-02  8.6400E-02  8.6400E-02  8.6400E-02
       8.6400E-02  0.1814      0.1814      0.1814      0.1814      0.1814      0.1814      0.3629      0.3629      0.3629    
       0.3629      0.3629      0.3629      0.3629      0.3629      0.3629      0.3629      0.3629      0.1814      0.1814    
       0.1814      0.1814      0.1814      0.1814      0.1814      0.1814      0.1814      0.1814      0.1814      0.1814    
       0.1814      0.1814      0.1814      0.1814      0.1814      0.1814      0.1814      0.1814      0.1814      0.1814    
       0.1814      0.1814      0.1814      0.1814      0.1814      0.1814      0.1814      0.1814      0.1814      0.1814    
       0.1814      0.1814      0.1814      0.1814      0.1814      0.1814      0.1814      0.1814      0.1814      0.1814    
       0.1814      0.1814      0.1814      0.1814      0.1814      0.1814      0.1814      0.1814      0.1814      0.1814    
       0.1814      0.1814      0.1814      0.1814      0.1814      0.1814      0.1814      0.1814      0.1814      0.1814    
       0.1814      0.1814      0.1814      0.1814      0.1814      0.1814      0.1814      0.1814      0.1814      0.1814    
       0.1814      0.1814      0.1814      0.1814      0.1814      0.1814      0.1814      0.1814      0.1814      0.1814    
       0.1814      0.1814      0.1814      0.1814      0.1814      0.1814      0.1814      0.1814      0.1814      0.1814    
       0.1814      0.1814      0.1814      8.6400E-02  8.6400E-02  8.6400E-02  8.6400E-02  8.6400E-02  8.6400E-02  8.6400E-02
       8.6400E-02  8.6400E-02  8.6400E-02  8.6400E-02  8.6400E-02  8.6400E-02  8.6400E-02  8.6400E-02  8.6400E-02  8.6400E-02
       8.6400E-02  8.6400E-02  8.6400E-02  8.6400E-02  8.6400E-02  8.6400E-02  8.6400E-02  8.6400E-02  8.6400E-02  8.6400E-02
       8.6400E-02  8.6400E-02  8.6400E-02  8.6400E-02  8.6400E-02  8.6400E-02  8.6400E-02  8.6400E-02  8.6400E-02  8.6400E-02
       8.6400E-02  8.6400E-02  8.6400E-02  8.6400E-02  8.6400E-02  8.6400E-02  8.6400E-02  8.6400E-02  8.6400E-02  8.6400E-02
       8.6400E-02  8.6400E-02  8.6400E-02  8.6400E-02  8.6400E-02  8.6400E-02  8.6400E-02  8.6400E-02  8.6400E-02  8.6400E-02
       8.6400E-02  8.6400E-02  8.6400E-02  8.6400E-02  8.6400E-02  8.6400E-02
  64   8.6400E-02  8.6400E-02  8.6400E-02  8.6400E-02  8.6400E-02  8.6400E-02  8.6400E-02  8.6400E-02  8.6400E-02  8.6400E-02
       8.6400E-02  0.1814      0.1814      0.1814      0.1814      0.1814      0.1814      0.3629      0.3629      0.3629    
       0.3629      0.3629      0.3629      0.3629      0.3629      0.3629      0.3629      0.3629      0.3629      0.1814    
       0.1814      0.1814      0.1814      0.1814      0.1814      0.1814      0.1814      0.1814      0.1814      0.1814    
       0.1814      0.1814      0.1814      0.1814      0.1814      0.1814      0.1814      0.1814      0.1814      0.1814    
       0.1814      0.1814      0.1814      0.1814      0.1814      0.1814      0.1814      0.1814      0.1814      0.1814    
       0.1814      0.1814      0.1814      0.1814      0.1814      0.1814      0.1814      0.1814      0.1814      0.1814    
       0.1814      0.1814      0.1814      0.1814      0.1814      0.1814      0.1814      0.1814      0.1814      0.1814    
       0.1814      0.1814      0.1814      0.1814      0.1814      0.1814      0.1814      0.1814      0.1814      0.1814    
       0.1814      0.1814      0.1814      0.1814      0.1814      0.1814      0.1814      0.1814      0.1814      0.1814    
       0.1814      0.1814      0.1814      0.1814      0.1814      0.1814      0.1814      0.1814      0.1814      0.1814    
       0.1814      0.1814      0.1814      0.1814      0.1814      0.1814      0.1814      0.1814      0.1814      0.1814    
       0.1814      0.1814      0.1814      8.6400E-02  8.6400E-02  8.6400E-02  8.6400E-02  8.6400E-02  8.6400E-02  8.6400E-02
       8.6400E-02  8.6400E-02  8.6400E-02  8.6400E-02  8.6400E-02  8.6400E-02  8.6400E-02  8.6400E-02  8.6400E-02  8.6400E-02
       8.6400E-02  8.6400E-02  8.6400E-02  8.6400E-02  8.6400E-02  8.6400E-02  8.6400E-02  8.6400E-02  8.6400E-02  8.6400E-02
       8.6400E-02  8.6400E-02  8.6400E-02  8.6400E-02  8.6400E-02  8.6400E-02  8.6400E-02  8.6400E-02  8.6400E-02  8.6400E-02
       8.6400E-02  8.6400E-02  8.6400E-02  8.6400E-02  8.6400E-02  8.6400E-02  8.6400E-02  8.6400E-02  8.6400E-02  8.6400E-02
       8.6400E-02  8.6400E-02  8.6400E-02  8.6400E-02  8.6400E-02  8.6400E-02  8.6400E-02  8.6400E-02  8.6400E-02  8.6400E-02
       8.6400E-02  8.6400E-02  8.6400E-02  8.6400E-02  8.6400E-02  8.6400E-02
  65   8.6400E-02  8.6400E-02  8.6400E-02  8.6400E-02  8.6400E-02  8.6400E-02  8.6400E-02  8.6400E-02  8.6400E-02  8.6400E-02
       8.6400E-02  0.1814      0.1814      0.1814      0.1814      0.1814      0.1814      0.3629      0.3629      0.3629    
       0.3629      0.3629      0.3629      0.3629      0.3629      0.3629      0.3629      0.3629      0.3629      0.1814    
       0.1814      0.1814      0.1814      0.1814      0.1814      0.1814      0.1814      0.1814      0.1814      0.1814    
       0.1814      0.1814      0.1814      0.1814      0.1814      0.1814      0.1814      0.1814      0.1814      0.1814    
       0.1814      0.1814      0.1814      0.1814      0.1814      0.1814      0.1814      0.1814      0.1814      0.1814    
       0.1814      0.1814      0.1814      0.1814      0.1814      0.1814      0.1814      0.1814      0.1814      0.1814    
       0.1814      0.1814      0.1814      0.1814      0.1814      0.1814      0.1814      0.1814      0.1814      0.1814    
       0.1814      0.1814      0.1814      0.1814      0.1814      0.1814      0.1814      0.1814      0.1814      0.1814    
       0.1814      0.1814      0.1814      0.1814      0.1814      0.1814      0.1814      0.1814      0.1814      0.1814    
       0.1814      0.1814      0.1814      0.1814      0.1814      0.1814      0.1814      0.1814      0.1814      0.1814    
       0.1814      0.1814      0.1814      0.1814      0.1814      0.1814      0.1814      0.1814      0.1814      0.1814    
       0.1814      0.1814      0.1814      8.6400E-02  8.6400E-02  8.6400E-02  8.6400E-02  8.6400E-02  8.6400E-02  8.6400E-02
       8.6400E-02  8.6400E-02  8.6400E-02  8.6400E-02  8.6400E-02  8.6400E-02  8.6400E-02  8.6400E-02  8.6400E-02  8.6400E-02
       8.6400E-02  8.6400E-02  8.6400E-02  8.6400E-02  8.6400E-02  8.6400E-02  8.6400E-02  8.6400E-02  8.6400E-02  8.6400E-02
       8.6400E-02  8.6400E-02  8.6400E-02  8.6400E-02  8.6400E-02  8.6400E-02  8.6400E-02  8.6400E-02  8.6400E-02  8.6400E-02
       8.6400E-02  8.6400E-02  8.6400E-02  8.6400E-02  8.6400E-02  8.6400E-02  8.6400E-02  8.6400E-02  8.6400E-02  8.6400E-02
       8.6400E-02  8.6400E-02  8.6400E-02  8.6400E-02  8.6400E-02  8.6400E-02  8.6400E-02  8.6400E-02  8.6400E-02  8.6400E-02
       8.6400E-02  8.6400E-02  8.6400E-02  8.6400E-02  8.6400E-02  8.6400E-02
  66   8.6400E-02  8.6400E-02  8.6400E-02  8.6400E-02  8.6400E-02  8.6400E-02  8.6400E-02  8.6400E-02  8.6400E-02  8.6400E-02
       8.6400E-02  0.1814      0.1814      0.1814      0.1814      0.1814      0.1814      0.1814      0.3629      0.3629    
       0.3629      0.3629      0.3629      0.3629      0.3629      0.3629      0.3629      0.3629      0.3629      0.3629    
       0.1814      0.1814      0.1814      0.1814      0.1814      0.1814      0.1814      0.1814      0.1814      0.1814    
       0.1814      0.1814      0.1814      0.1814      0.1814      0.1814      0.1814      0.1814      0.1814      0.1814    
       0.1814      0.1814      0.1814      0.1814      0.1814      0.1814      0.1814      0.1814      0.1814      0.1814    
       0.1814      0.1814      0.1814      0.1814      0.1814      0.1814      0.1814      0.1814      0.1814      0.1814    
       0.1814      0.1814      0.1814      0.1814      0.1814      0.1814      0.1814      0.1814      0.1814      0.1814    
       0.1814      0.1814      0.1814      0.1814      0.1814      0.1814      0.1814      0.1814      0.1814      0.1814    
       0.1814      0.1814      0.1814      0.1814      0.1814      0.1814      0.1814      0.1814      0.1814      0.1814    
       0.1814      0.1814      0.1814      0.1814      0.1814      0.1814      0.1814      0.1814      0.1814      0.1814    
       0.1814      0.1814      0.1814      0.1814      0.1814      0.1814      0.1814      0.1814      0.1814      0.1814    
       0.1814      0.1814      0.1814      8.6400E-02  8.6400E-02  8.6400E-02  8.6400E-02  8.6400E-02  8.6400E-02  8.6400E-02
       8.6400E-02  8.6400E-02  8.6400E-02  8.6400E-02  8.6400E-02  8.6400E-02  8.6400E-02  8.6400E-02  8.6400E-02  8.6400E-02
       8.6400E-02  8.6400E-02  8.6400E-02  8.6400E-02  8.6400E-02  8.6400E-02  8.6400E-02  8.6400E-02  8.6400E-02  8.6400E-02
       8.6400E-02  8.6400E-02  8.6400E-02  8.6400E-02  8.6400E-02  8.6400E-02  8.6400E-02  8.6400E-02  8.6400E-02  8.6400E-02
       8.6400E-02  8.6400E-02  8.6400E-02  8.6400E-02  8.6400E-02  8.6400E-02  8.6400E-02  8.6400E-02  8.6400E-02  8.6400E-02
       8.6400E-02  8.6400E-02  8.6400E-02  8.6400E-02  8.6400E-02  8.6400E-02  8.6400E-02  8.6400E-02  8.6400E-02  8.6400E-02
       8.6400E-02  8.6400E-02  8.6400E-02  8.6400E-02  8.6400E-02  8.6400E-02
  67   8.6400E-02  8.6400E-02  8.6400E-02  8.6400E-02  8.6400E-02  8.6400E-02  8.6400E-02  8.6400E-02  8.6400E-02  8.6400E-02
       8.6400E-02  8.6400E-02  0.1814      0.1814      0.1814      0.1814      0.1814      0.1814      0.3629      0.3629    
       0.3629      0.3629      0.3629      0.3629      0.3629      0.3629      0.3629      0.3629      0.3629      0.3629    
       0.1814      0.1814      0.1814      0.1814      0.1814      0.1814      0.1814      0.1814      0.1814      0.1814    
       0.1814      0.1814      0.1814      0.1814      0.1814      0.1814      0.1814      0.1814      0.1814      0.1814    
       0.1814      0.1814      0.1814      0.1814      0.1814      0.1814      0.1814      0.1814      0.1814      0.1814    
       0.1814      0.1814      0.1814      0.1814      0.1814      0.1814      0.1814      0.1814      0.1814      0.1814    
       0.1814      0.1814      0.1814      0.1814      0.1814      0.1814      0.1814      0.1814      0.1814      0.1814    
       0.1814      0.1814      0.1814      0.1814      0.1814      0.1814      0.1814      0.1814      0.1814      0.1814    
       0.1814      0.1814      0.1814      0.1814      0.1814      0.1814      0.1814      0.1814      0.1814      0.1814    
       0.1814      0.1814      0.1814      0.1814      0.1814      0.1814      0.1814      0.1814      0.1814      0.1814    
       0.1814      0.1814      0.1814      0.1814      0.1814      0.1814      0.1814      0.1814      0.1814      0.1814    
       0.1814      0.1814      0.1814      8.6400E-02  8.6400E-02  8.6400E-02  8.6400E-02  8.6400E-02  8.6400E-02  8.6400E-02
       8.6400E-02  8.6400E-02  8.6400E-02  8.6400E-02  8.6400E-02  8.6400E-02  8.6400E-02  8.6400E-02  8.6400E-02  8.6400E-02
       8.6400E-02  8.6400E-02  8.6400E-02  8.6400E-02  8.6400E-02  8.6400E-02  8.6400E-02  8.6400E-02  8.6400E-02  8.6400E-02
       8.6400E-02  8.6400E-02  8.6400E-02  8.6400E-02  8.6400E-02  8.6400E-02  8.6400E-02  8.6400E-02  8.6400E-02  8.6400E-02
       8.6400E-02  8.6400E-02  8.6400E-02  8.6400E-02  8.6400E-02  8.6400E-02  8.6400E-02  8.6400E-02  8.6400E-02  8.6400E-02
       8.6400E-02  8.6400E-02  8.6400E-02  8.6400E-02  8.6400E-02  8.6400E-02  8.6400E-02  8.6400E-02  8.6400E-02  8.6400E-02
       8.6400E-02  8.6400E-02  8.6400E-02  8.6400E-02  8.6400E-02  8.6400E-02
  68   8.6400E-02  8.6400E-02  8.6400E-02  8.6400E-02  8.6400E-02  8.6400E-02  8.6400E-02  8.6400E-02  8.6400E-02  8.6400E-02
       8.6400E-02  8.6400E-02  0.1814      0.1814      0.1814      0.1814      0.1814      0.1814      0.1814      0.3629    
       0.3629      0.3629      0.3629      0.3629      0.3629      0.3629      0.3629      0.3629      0.3629      0.3629    
       0.1814      0.1814      0.1814      0.1814      0.1814      0.1814      0.1814      0.1814      0.1814      0.1814    
       0.1814      0.1814      0.1814      0.1814      0.1814      0.1814      0.1814      0.1814      0.1814      0.1814    
       0.1814      0.1814      0.1814      0.1814      0.1814      0.1814      0.1814      0.1814      0.1814      0.1814    
       0.1814      0.1814      0.1814      0.1814      0.1814      0.1814      0.1814      0.1814      0.1814      0.1814    
       0.1814      0.1814      0.1814      0.1814      0.1814      0.1814      0.1814      0.1814      0.1814      0.1814    
       0.1814      0.1814      0.1814      0.1814      0.1814      0.1814      0.1814      0.1814      0.1814      0.1814    
       0.1814      0.1814      0.1814      0.1814      0.1814      0.1814      0.1814      0.1814      0.1814      0.1814    
       0.1814      0.1814      0.1814      0.1814      0.1814      0.1814      0.1814      0.1814      0.1814      0.1814    
       0.1814      0.1814      0.1814      0.1814      0.1814      0.1814      0.1814      0.1814      0.1814      0.1814    
       0.1814      0.1814      0.1814      0.1814      8.6400E-02  8.6400E-02  8.6400E-02  8.6400E-02  8.6400E-02  8.6400E-02
       8.6400E-02  8.6400E-02  8.6400E-02  8.6400E-02  8.6400E-02  8.6400E-02  8.6400E-02  8.6400E-02  8.6400E-02  8.6400E-02
       8.6400E-02  8.6400E-02  8.6400E-02  8.6400E-02  8.6400E-02  8.6400E-02  8.6400E-02  8.6400E-02  8.6400E-02  8.6400E-02
       8.6400E-02  8.6400E-02  8.6400E-02  8.6400E-02  8.6400E-02  8.6400E-02  8.6400E-02  8.6400E-02  8.6400E-02  8.6400E-02
       8.6400E-02  8.6400E-02  8.6400E-02  8.6400E-02  8.6400E-02  8.6400E-02  8.6400E-02  8.6400E-02  8.6400E-02  8.6400E-02
       8.6400E-02  8.6400E-02  8.6400E-02  8.6400E-02  8.6400E-02  8.6400E-02  8.6400E-02  8.6400E-02  8.6400E-02  8.6400E-02
       8.6400E-02  8.6400E-02  8.6400E-02  8.6400E-02  8.6400E-02  8.6400E-02
  69   8.6400E-02  8.6400E-02  8.6400E-02  8.6400E-02  8.6400E-02  8.6400E-02  8.6400E-02  8.6400E-02  8.6400E-02  8.6400E-02
       8.6400E-02  8.6400E-02  0.1814      0.1814      0.1814      0.1814      0.1814      0.1814      0.1814      0.3629    
       0.3629      0.3629      0.3629      0.3629      0.3629      0.3629      0.3629      0.3629      0.3629      0.3629    
       0.3629      0.1814      0.1814      0.1814      0.1814      0.1814      0.1814      0.1814      0.1814      0.1814    
       0.1814      0.1814      0.1814      0.1814      0.1814      0.1814      0.1814      0.1814      0.1814      0.1814    
       0.1814      0.1814      0.1814      0.1814      0.1814      0.1814      0.1814      0.1814      0.1814      0.1814    
       0.1814      0.1814      0.1814      0.1814      0.1814      0.1814      0.1814      0.1814      0.1814      0.1814    
       0.1814      0.1814      0.1814      0.1814      0.1814      0.1814      0.1814      0.1814      0.1814      0.1814    
       0.1814      0.1814      0.1814      0.1814      0.1814      0.1814      0.1814      0.1814      0.1814      0.1814    
       0.1814      0.1814      0.1814      0.1814      0.1814      0.1814      0.1814      0.1814      0.1814      0.1814    
       0.1814      0.1814      0.1814      0.1814      0.1814      0.1814      0.1814      0.1814      0.1814      0.1814    
       0.1814      0.1814      0.1814      0.1814      0.1814      0.1814      0.1814      0.1814      0.1814      0.1814    
       0.1814      0.1814      0.1814      0.1814      8.6400E-02  8.6400E-02  8.6400E-02  8.6400E-02  8.6400E-02  8.6400E-02
       8.6400E-02  8.6400E-02  8.6400E-02  8.6400E-02  8.6400E-02  8.6400E-02  8.6400E-02  8.6400E-02  8.6400E-02  8.6400E-02
       8.6400E-02  8.6400E-02  8.6400E-02  8.6400E-02  8.6400E-02  8.6400E-02  8.6400E-02  8.6400E-02  8.6400E-02  8.6400E-02
       8.6400E-02  8.6400E-02  8.6400E-02  8.6400E-02  8.6400E-02  8.6400E-02  8.6400E-02  8.6400E-02  8.6400E-02  8.6400E-02
       8.6400E-02  8.6400E-02  8.6400E-02  8.6400E-02  8.6400E-02  8.6400E-02  8.6400E-02  8.6400E-02  8.6400E-02  8.6400E-02
       8.6400E-02  8.6400E-02  8.6400E-02  8.6400E-02  8.6400E-02  8.6400E-02  8.6400E-02  8.6400E-02  8.6400E-02  8.6400E-02
       8.6400E-02  8.6400E-02  8.6400E-02  8.6400E-02  8.6400E-02  8.6400E-02
  70   8.6400E-02  8.6400E-02  8.6400E-02  8.6400E-02  8.6400E-02  8.6400E-02  8.6400E-02  8.6400E-02  8.6400E-02  8.6400E-02
       8.6400E-02  8.6400E-02  0.1814      0.1814      0.1814      0.1814      0.1814      0.1814      0.1814      0.3629    
       0.3629      0.3629      0.3629      0.3629      0.3629      0.3629      0.3629      0.3629      0.3629      0.3629    
       0.3629      0.1814      0.1814      0.1814      0.1814      0.1814      0.1814      0.1814      0.1814      0.1814    
       0.1814      0.1814      0.1814      0.1814      0.1814      0.1814      0.1814      0.1814      0.1814      0.1814    
       0.1814      0.1814      0.1814      0.1814      0.1814      0.1814      0.1814      0.1814      0.1814      0.1814    
       0.1814      0.1814      0.1814      0.1814      0.1814      0.1814      0.1814      0.1814      0.1814      0.1814    
       0.1814      0.1814      0.1814      0.1814      0.1814      0.1814      0.1814      0.1814      0.1814      0.1814    
       0.1814      0.1814      0.1814      0.1814      0.1814      0.1814      0.1814      0.1814      0.1814      0.1814    
       0.1814      0.1814      0.1814      0.1814      0.1814      0.1814      0.1814      0.1814      0.1814      0.1814    
       0.1814      0.1814      0.1814      0.1814      0.1814      0.1814      0.1814      0.1814      0.1814      0.1814    
       0.1814      0.1814      0.1814      0.1814      0.1814      0.1814      0.1814      0.1814      0.1814      0.1814    
       0.1814      0.1814      0.1814      0.1814      0.1814      8.6400E-02  8.6400E-02  8.6400E-02  8.6400E-02  8.6400E-02
       8.6400E-02  8.6400E-02  8.6400E-02  8.6400E-02  8.6400E-02  8.6400E-02  8.6400E-02  8.6400E-02  8.6400E-02  8.6400E-02
       8.6400E-02  8.6400E-02  8.6400E-02  8.6400E-02  8.6400E-02  8.6400E-02  8.6400E-02  8.6400E-02  8.6400E-02  8.6400E-02
       8.6400E-02  8.6400E-02  8.6400E-02  8.6400E-02  8.6400E-02  8.6400E-02  8.6400E-02  8.6400E-02  8.6400E-02  8.6400E-02
       8.6400E-02  8.6400E-02  8.6400E-02  8.6400E-02  8.6400E-02  8.6400E-02  8.6400E-02  8.6400E-02  8.6400E-02  8.6400E-02
       8.6400E-02  8.6400E-02  8.6400E-02  8.6400E-02  8.6400E-02  8.6400E-02  8.6400E-02  8.6400E-02  8.6400E-02  8.6400E-02
       8.6400E-02  8.6400E-02  8.6400E-02  8.6400E-02  8.6400E-02  8.6400E-02
  71   8.6400E-02  8.6400E-02  8.6400E-02  8.6400E-02  8.6400E-02  8.6400E-02  8.6400E-02  8.6400E-02  8.6400E-02  8.6400E-02
       8.6400E-02  8.6400E-02  0.1814      0.1814      0.1814      0.1814      0.1814      0.1814      0.1814      0.3629    
       0.3629      0.3629      0.3629      0.3629      0.3629      0.3629      0.3629      0.3629      0.3629      0.3629    
       0.3629      0.1814      0.1814      0.1814      0.1814      0.1814      0.1814      0.1814      0.1814      0.1814    
       0.1814      0.1814      0.1814      0.1814      0.1814      0.1814      0.1814      0.1814      0.1814      0.1814    
       0.1814      0.1814      0.1814      0.1814      0.1814      0.1814      0.1814      0.1814      0.1814      0.1814    
       0.1814      0.1814      0.1814      0.1814      0.1814      0.1814      0.1814      0.1814      0.1814      0.1814    
       0.1814      0.1814      0.1814      0.1814      0.1814      0.1814      0.1814      0.1814      0.1814      0.1814    
       0.1814      0.1814      0.1814      0.1814      0.1814      0.1814      0.1814      0.1814      0.1814      0.1814    
       0.1814      0.1814      0.1814      0.1814      0.1814      0.1814      0.1814      0.1814      0.1814      0.1814    
       0.1814      0.1814      0.1814      0.1814      0.1814      0.1814      0.1814      0.1814      0.1814      0.1814    
       0.1814      0.1814      0.1814      0.1814      0.1814      0.1814      0.1814      0.1814      0.1814      0.1814    
       0.1814      0.1814      0.1814      0.1814      0.1814      8.6400E-02  8.6400E-02  8.6400E-02  8.6400E-02  8.6400E-02
       8.6400E-02  8.6400E-02  8.6400E-02  8.6400E-02  8.6400E-02  8.6400E-02  8.6400E-02  8.6400E-02  8.6400E-02  8.6400E-02
       8.6400E-02  8.6400E-02  8.6400E-02  8.6400E-02  8.6400E-02  8.6400E-02  8.6400E-02  8.6400E-02  8.6400E-02  8.6400E-02
       8.6400E-02  8.6400E-02  8.6400E-02  8.6400E-02  8.6400E-02  8.6400E-02  8.6400E-02  8.6400E-02  8.6400E-02  8.6400E-02
       8.6400E-02  8.6400E-02  8.6400E-02  8.6400E-02  8.6400E-02  8.6400E-02  8.6400E-02  8.6400E-02  8.6400E-02  8.6400E-02
       8.6400E-02  8.6400E-02  8.6400E-02  8.6400E-02  8.6400E-02  8.6400E-02  8.6400E-02  8.6400E-02  8.6400E-02  8.6400E-02
       8.6400E-02  8.6400E-02  8.6400E-02  8.6400E-02  8.6400E-02  8.6400E-02
  72   8.6400E-02  8.6400E-02  8.6400E-02  8.6400E-02  8.6400E-02  8.6400E-02  8.6400E-02  8.6400E-02  8.6400E-02  8.6400E-02
       8.6400E-02  8.6400E-02  0.1814      0.1814      0.1814      0.1814      0.1814      0.1814      0.1814      0.1814    
       0.3629      0.3629      0.3629      0.3629      0.3629      0.3629      0.3629      0.3629      0.3629      0.3629    
       0.3629      0.1814      0.1814      0.1814      0.1814      0.1814      0.1814      0.1814      0.1814      0.1814    
       0.1814      0.1814      0.1814      0.1814      0.1814      0.1814      0.1814      0.1814      0.1814      0.1814    
       0.1814      0.1814      0.1814      0.1814      0.1814      0.1814      0.1814      0.1814      0.1814      0.1814    
       0.1814      0.1814      0.1814      0.1814      0.1814      0.1814      0.1814      0.1814      0.1814      0.1814    
       0.1814      0.1814      0.1814      0.1814      0.1814      0.1814      0.1814      0.1814      0.1814      0.1814    
       0.1814      0.1814      0.1814      0.1814      0.1814      0.1814      0.1814      0.1814      0.1814      0.1814    
       0.1814      0.1814      0.1814      0.1814      0.1814      0.1814      0.1814      0.1814      0.1814      0.1814    
       0.1814      0.1814      0.1814      0.1814      0.1814      0.1814      0.1814      0.1814      0.1814      0.1814    
       0.1814      0.1814      0.1814      0.1814      0.1814      0.1814      0.1814      0.1814      0.1814      0.1814    
       0.1814      0.1814      0.1814      0.1814      0.1814      8.6400E-02  8.6400E-02  8.6400E-02  8.6400E-02  8.6400E-02
       8.6400E-02  8.6400E-02  8.6400E-02  8.6400E-02  8.6400E-02  8.6400E-02  8.6400E-02  8.6400E-02  8.6400E-02  8.6400E-02
       8.6400E-02  8.6400E-02  8.6400E-02  8.6400E-02  8.6400E-02  8.6400E-02  8.6400E-02  8.6400E-02  8.6400E-02  8.6400E-02
       8.6400E-02  8.6400E-02  8.6400E-02  8.6400E-02  8.6400E-02  8.6400E-02  8.6400E-02  8.6400E-02  8.6400E-02  8.6400E-02
       8.6400E-02  8.6400E-02  8.6400E-02  8.6400E-02  8.6400E-02  8.6400E-02  8.6400E-02  8.6400E-02  8.6400E-02  8.6400E-02
       8.6400E-02  8.6400E-02  8.6400E-02  8.6400E-02  8.6400E-02  8.6400E-02  8.6400E-02  8.6400E-02  8.6400E-02  8.6400E-02
       8.6400E-02  8.6400E-02  8.6400E-02  8.6400E-02  8.6400E-02  8.6400E-02
  73   8.6400E-02  8.6400E-02  8.6400E-02  8.6400E-02  8.6400E-02  8.6400E-02  8.6400E-02  8.6400E-02  8.6400E-02  8.6400E-02
       8.6400E-02  8.6400E-02  0.1814      0.1814      0.1814      0.1814      0.1814      0.1814      0.1814      0.1814    
       0.3629      0.3629      0.3629      0.3629      0.3629      0.3629      0.3629      0.3629      0.3629      0.3629    
       0.3629      0.3629      0.1814      0.1814      0.1814      0.1814      0.1814      0.1814      0.1814      0.1814    
       0.1814      0.1814      0.1814      0.1814      0.1814      0.1814      0.1814      0.1814      0.1814      0.1814    
       0.1814      0.1814      0.1814      0.1814      0.1814      0.1814      0.1814      0.1814      0.1814      0.1814    
       0.1814      0.1814      0.1814      0.1814      0.1814      0.1814      0.1814      0.1814      0.1814      0.1814    
       0.1814      0.1814      0.1814      0.1814      0.1814      0.1814      0.1814      0.1814      0.1814      0.1814    
       0.1814      0.1814      0.1814      0.1814      0.1814      0.1814      0.1814      0.1814      0.1814      0.1814    
       0.1814      0.1814      0.1814      0.1814      0.1814      0.1814      0.1814      0.1814      0.1814      0.1814    
       0.1814      0.1814      0.1814      0.1814      0.1814      0.1814      0.1814      0.1814      0.1814      0.1814    
       0.1814      0.1814      0.1814      0.1814      0.1814      0.1814      0.1814      0.1814      0.1814      0.1814    
       0.1814      0.1814      0.1814      0.1814      0.1814      0.1814      8.6400E-02  8.6400E-02  8.6400E-02  8.6400E-02
       8.6400E-02  8.6400E-02  8.6400E-02  8.6400E-02  8.6400E-02  8.6400E-02  8.6400E-02  8.6400E-02  8.6400E-02  8.6400E-02
       8.6400E-02  8.6400E-02  8.6400E-02  8.6400E-02  8.6400E-02  8.6400E-02  8.6400E-02  8.6400E-02  8.6400E-02  8.6400E-02
       8.6400E-02  8.6400E-02  8.6400E-02  8.6400E-02  8.6400E-02  8.6400E-02  8.6400E-02  8.6400E-02  8.6400E-02  8.6400E-02
       8.6400E-02  8.6400E-02  8.6400E-02  8.6400E-02  8.6400E-02  8.6400E-02  8.6400E-02  8.6400E-02  8.6400E-02  8.6400E-02
       8.6400E-02  8.6400E-02  8.6400E-02  8.6400E-02  8.6400E-02  8.6400E-02  8.6400E-02  8.6400E-02  8.6400E-02  8.6400E-02
       8.6400E-02  8.6400E-02  8.6400E-02  8.6400E-02  8.6400E-02  8.6400E-02
  74   8.6400E-02  8.6400E-02  8.6400E-02  8.6400E-02  8.6400E-02  8.6400E-02  8.6400E-02  8.6400E-02  8.6400E-02  8.6400E-02
       8.6400E-02  8.6400E-02  0.1814      0.1814      0.1814      0.1814      0.1814      0.1814      0.1814      0.1814    
       0.3629      0.3629      0.3629      0.3629      0.3629      0.3629      0.3629      0.3629      0.3629      0.3629    
       0.3629      0.3629      0.1814      0.1814      0.1814      0.1814      0.1814      0.1814      0.1814      0.1814    
       0.1814      0.1814      0.1814      0.1814      0.1814      0.1814      0.1814      0.1814      0.1814      0.1814    
       0.1814      0.1814      0.1814      0.1814      0.1814      0.1814      0.1814      0.1814      0.1814      0.1814    
       0.1814      0.1814      0.1814      0.1814      0.1814      0.1814      0.1814      0.1814      0.1814      0.1814    
       0.1814      0.1814      0.1814      0.1814      0.1814      0.1814      0.1814      0.1814      0.1814      0.1814    
       0.1814      0.1814      0.1814      0.1814      0.1814      0.1814      0.1814      0.1814      0.1814      0.1814    
       0.1814      0.1814      0.1814      0.1814      0.1814      0.1814      0.1814      0.1814      0.1814      0.1814    
       0.1814      0.1814      0.1814      0.1814      0.1814      0.1814      0.1814      0.1814      0.1814      0.1814    
       0.1814      0.1814      0.1814      0.1814      0.1814      0.1814      0.1814      0.1814      0.1814      0.1814    
       0.1814      0.1814      0.1814      0.1814      0.1814      0.1814      0.1814      8.6400E-02  8.6400E-02  8.6400E-02
       8.6400E-02  8.6400E-02  8.6400E-02  8.6400E-02  8.6400E-02  8.6400E-02  8.6400E-02  8.6400E-02  8.6400E-02  8.6400E-02
       8.6400E-02  8.6400E-02  8.6400E-02  8.6400E-02  8.6400E-02  8.6400E-02  8.6400E-02  8.6400E-02  8.6400E-02  8.6400E-02
       8.6400E-02  8.6400E-02  8.6400E-02  8.6400E-02  8.6400E-02  8.6400E-02  8.6400E-02  8.6400E-02  8.6400E-02  8.6400E-02
       8.6400E-02  8.6400E-02  8.6400E-02  8.6400E-02  8.6400E-02  8.6400E-02  8.6400E-02  8.6400E-02  8.6400E-02  8.6400E-02
       8.6400E-02  8.6400E-02  8.6400E-02  8.6400E-02  8.6400E-02  8.6400E-02  8.6400E-02  8.6400E-02  8.6400E-02  8.6400E-02
       8.6400E-02  8.6400E-02  8.6400E-02  8.6400E-02  8.6400E-02  8.6400E-02
  75   8.6400E-02  8.6400E-02  8.6400E-02  8.6400E-02  8.6400E-02  8.6400E-02  8.6400E-02  8.6400E-02  8.6400E-02  8.6400E-02
       8.6400E-02  8.6400E-02  0.1814      0.1814      0.1814      0.1814      0.1814      0.1814      0.1814      0.1814    
       0.3629      0.3629      0.3629      0.3629      0.3629      0.3629      0.3629      0.3629      0.3629      0.3629    
       0.3629      0.3629      0.3629      0.1814      0.1814      0.1814      0.1814      0.1814      0.1814      0.1814    
       0.1814      0.1814      0.1814      0.1814      0.1814      0.1814      0.1814      0.1814      0.1814      0.1814    
       0.1814      0.1814      0.1814      0.1814      0.1814      0.1814      0.1814      0.1814      0.1814      0.1814    
       0.1814      0.1814      0.1814      0.1814      0.1814      0.1814      0.1814      0.1814      0.1814      0.1814    
       0.1814      0.1814      0.1814      0.1814      0.1814      0.1814      0.1814      0.1814      0.1814      0.1814    
       0.1814      0.1814      0.1814      0.1814      0.1814      0.1814      0.1814      0.1814      0.1814      0.1814    
       0.1814      0.1814      0.1814      0.1814      0.1814      0.1814      0.1814      0.1814      0.1814      0.1814    
       0.1814      0.1814      0.1814      0.1814      0.1814      0.1814      0.1814      0.1814      0.1814      0.1814    
       0.1814      0.1814      0.1814      0.1814      0.1814      0.1814      0.1814      0.1814      0.1814      0.1814    
       0.1814      0.1814      0.1814      0.1814      0.1814      0.1814      0.1814      0.1814      8.6400E-02  8.6400E-02
       8.6400E-02  8.6400E-02  8.6400E-02  8.6400E-02  8.6400E-02  8.6400E-02  8.6400E-02  8.6400E-02  8.6400E-02  8.6400E-02
       8.6400E-02  8.6400E-02  8.6400E-02  8.6400E-02  8.6400E-02  8.6400E-02  8.6400E-02  8.6400E-02  8.6400E-02  8.6400E-02
       8.6400E-02  8.6400E-02  8.6400E-02  8.6400E-02  8.6400E-02  8.6400E-02  8.6400E-02  8.6400E-02  8.6400E-02  8.6400E-02
       8.6400E-02  8.6400E-02  8.6400E-02  8.6400E-02  8.6400E-02  8.6400E-02  8.6400E-02  8.6400E-02  8.6400E-02  8.6400E-02
       8.6400E-02  8.6400E-02  8.6400E-02  8.6400E-02  8.6400E-02  8.6400E-02  8.6400E-02  8.6400E-02  8.6400E-02  8.6400E-02
       8.6400E-02  8.6400E-02  8.6400E-02  8.6400E-02  8.6400E-02  8.6400E-02
  76   8.6400E-02  8.6400E-02  8.6400E-02  8.6400E-02  8.6400E-02  8.6400E-02  8.6400E-02  8.6400E-02  8.6400E-02  8.6400E-02
       8.6400E-02  8.6400E-02  0.1814      0.1814      0.1814      0.1814      0.1814      0.1814      0.1814      0.1814    
       0.3629      0.3629      0.3629      0.3629      0.3629      0.3629      0.3629      0.3629      0.3629      0.3629    
       0.3629      0.3629      0.3629      0.1814      0.1814      0.1814      0.1814      0.1814      0.1814      0.1814    
       0.1814      0.1814      0.1814      0.1814      0.1814      0.1814      0.1814      0.1814      0.1814      0.1814    
       0.1814      0.1814      0.1814      0.1814      0.1814      0.1814      0.1814      0.1814      0.1814      0.1814    
       0.1814      0.1814      0.1814      0.1814      0.1814      0.1814      0.1814      0.1814      0.1814      0.1814    
       0.1814      0.1814      0.1814      0.1814      0.1814      0.1814      0.1814      0.1814      0.1814      0.1814    
       0.1814      0.1814      0.1814      0.1814      0.1814      0.1814      0.1814      0.1814      0.1814      0.1814    
       0.1814      0.1814      0.1814      0.1814      0.1814      0.1814      0.1814      0.1814      0.1814      0.1814    
       0.1814      0.1814      0.1814      0.1814      0.1814      0.1814      0.1814      0.1814      0.1814      0.1814    
       0.1814      0.1814      0.1814      0.1814      0.1814      0.1814      0.1814      0.1814      0.1814      0.1814    
       0.1814      0.1814      0.1814      0.1814      0.1814      0.1814      0.1814      0.1814      8.6400E-02  8.6400E-02
       8.6400E-02  8.6400E-02  8.6400E-02  8.6400E-02  8.6400E-02  8.6400E-02  8.6400E-02  8.6400E-02  8.6400E-02  8.6400E-02
       8.6400E-02  8.6400E-02  8.6400E-02  8.6400E-02  8.6400E-02  8.6400E-02  8.6400E-02  8.6400E-02  8.6400E-02  8.6400E-02
       8.6400E-02  8.6400E-02  8.6400E-02  8.6400E-02  8.6400E-02  8.6400E-02  8.6400E-02  8.6400E-02  8.6400E-02  8.6400E-02
       8.6400E-02  8.6400E-02  8.6400E-02  8.6400E-02  8.6400E-02  8.6400E-02  8.6400E-02  8.6400E-02  8.6400E-02  8.6400E-02
       8.6400E-02  8.6400E-02  8.6400E-02  8.6400E-02  8.6400E-02  8.6400E-02  8.6400E-02  8.6400E-02  8.6400E-02  8.6400E-02
       8.6400E-02  8.6400E-02  8.6400E-02  8.6400E-02  8.6400E-02  8.6400E-02
  77   8.6400E-02  8.6400E-02  8.6400E-02  8.6400E-02  8.6400E-02  8.6400E-02  8.6400E-02  8.6400E-02  8.6400E-02  8.6400E-02
       8.6400E-02  8.6400E-02  0.1814      0.1814      0.1814      0.1814      0.1814      0.1814      0.1814      0.1814    
       0.1814      0.3629      0.3629      0.3629      0.3629      0.3629      0.3629      0.3629      0.3629      0.3629    
       0.3629      0.3629      0.3629      0.1814      0.1814      0.1814      0.1814      0.1814      0.1814      0.1814    
       0.1814      0.1814      0.1814      0.1814      0.1814      0.1814      0.1814      0.1814      0.1814      0.1814    
       0.1814      0.1814      0.1814      0.1814      0.1814      0.1814      0.1814      0.1814      0.1814      0.1814    
       0.1814      0.1814      0.1814      0.1814      0.1814      0.1814      0.1814      0.1814      0.1814      0.1814    
       0.1814      0.1814      0.1814      0.1814      0.1814      0.1814      0.1814      0.1814      0.1814      0.1814    
       0.1814      0.1814      0.1814      0.1814      0.1814      0.1814      0.1814      0.1814      0.1814      0.1814    
       0.1814      0.1814      0.1814      0.1814      0.1814      0.1814      0.1814      0.1814      0.1814      0.1814    
       0.1814      0.1814      0.1814      0.1814      0.1814      0.1814      0.1814      0.1814      0.1814      0.1814    
       0.1814      0.1814      0.1814      0.1814      0.1814      0.1814      0.1814      0.1814      0.1814      0.1814    
       0.1814      0.1814      0.1814      0.1814      0.1814      0.1814      0.1814      0.1814      0.1814      8.6400E-02
       8.6400E-02  8.6400E-02  8.6400E-02  8.6400E-02  8.6400E-02  8.6400E-02  8.6400E-02  8.6400E-02  8.6400E-02  8.6400E-02
       8.6400E-02  8.6400E-02  8.6400E-02  8.6400E-02  8.6400E-02  8.6400E-02  8.6400E-02  8.6400E-02  8.6400E-02  8.6400E-02
       8.6400E-02  8.6400E-02  8.6400E-02  8.6400E-02  8.6400E-02  8.6400E-02  8.6400E-02  8.6400E-02  8.6400E-02  8.6400E-02
       8.6400E-02  8.6400E-02  8.6400E-02  8.6400E-02  8.6400E-02  8.6400E-02  8.6400E-02  8.6400E-02  8.6400E-02  8.6400E-02
       8.6400E-02  8.6400E-02  8.6400E-02  8.6400E-02  8.6400E-02  8.6400E-02  8.6400E-02  8.6400E-02  8.6400E-02  8.6400E-02
       8.6400E-02  8.6400E-02  8.6400E-02  8.6400E-02  8.6400E-02  8.6400E-02
  78   8.6400E-02  8.6400E-02  8.6400E-02  8.6400E-02  8.6400E-02  8.6400E-02  8.6400E-02  8.6400E-02  8.6400E-02  8.6400E-02
       8.6400E-02  8.6400E-02  0.1814      0.1814      0.1814      0.1814      0.1814      0.1814      0.1814      0.1814    
       0.3629      0.3629      0.3629      0.3629      0.3629      0.3629      0.3629      0.3629      0.3629      0.3629    
       0.3629      0.3629      0.3629      0.3629      0.1814      0.1814      0.1814      0.1814      0.1814      0.1814    
       0.1814      0.1814      0.1814      0.1814      0.1814      0.1814      0.1814      0.1814      0.1814      0.1814    
       0.1814      0.1814      0.1814      0.1814      0.1814      0.1814      0.1814      0.1814      0.1814      0.1814    
       0.1814      0.1814      0.1814      0.1814      0.1814      0.1814      0.1814      0.1814      0.1814      0.1814    
       0.1814      0.1814      0.1814      0.1814      0.1814      0.1814      0.1814      0.1814      0.1814      0.1814    
       0.1814      0.1814      0.1814      0.1814      0.1814      0.1814      0.1814      0.1814      0.1814      0.1814    
       0.1814      0.1814      0.1814      0.1814      0.1814      0.1814      0.1814      0.1814      0.1814      0.1814    
       0.1814      0.1814      0.1814      0.1814      0.1814      0.1814      0.1814      0.1814      0.1814      0.1814    
       0.1814      0.1814      0.1814      0.1814      0.1814      0.1814      0.1814      0.1814      0.1814      0.1814    
       0.1814      0.1814      0.1814      0.1814      0.1814      0.1814      0.1814      0.1814      0.1814      0.1814    
       8.6400E-02  8.6400E-02  8.6400E-02  8.6400E-02  8.6400E-02  8.6400E-02  8.6400E-02  8.6400E-02  8.6400E-02  8.6400E-02
       8.6400E-02  8.6400E-02  8.6400E-02  8.6400E-02  8.6400E-02  8.6400E-02  8.6400E-02  8.6400E-02  8.6400E-02  8.6400E-02
       8.6400E-02  8.6400E-02  8.6400E-02  8.6400E-02  8.6400E-02  8.6400E-02  8.6400E-02  8.6400E-02  8.6400E-02  8.6400E-02
       8.6400E-02  8.6400E-02  8.6400E-02  8.6400E-02  8.6400E-02  8.6400E-02  8.6400E-02  8.6400E-02  8.6400E-02  8.6400E-02
       8.6400E-02  8.6400E-02  8.6400E-02  8.6400E-02  8.6400E-02  8.6400E-02  8.6400E-02  8.6400E-02  8.6400E-02  8.6400E-02
       8.6400E-02  8.6400E-02  8.6400E-02  8.6400E-02  8.6400E-02  8.6400E-02
  79   8.6400E-02  8.6400E-02  8.6400E-02  8.6400E-02  8.6400E-02  8.6400E-02  8.6400E-02  8.6400E-02  8.6400E-02  8.6400E-02
       8.6400E-02  8.6400E-02  0.1814      0.1814      0.1814      0.1814      0.1814      0.1814      0.1814      0.1814    
       0.3629      0.3629      0.3629      0.3629      0.3629      0.3629      0.3629      0.3629      0.3629      0.3629    
       0.3629      0.3629      0.3629      0.3629      0.1814      0.1814      0.1814      0.1814      0.1814      0.1814    
       0.1814      0.1814      0.1814      0.1814      0.1814      0.1814      0.1814      0.1814      0.1814      0.1814    
       0.1814      0.1814      0.1814      0.1814      0.1814      0.1814      0.1814      0.1814      0.1814      0.1814    
       0.1814      0.1814      0.1814      0.1814      0.1814      0.1814      0.1814      0.1814      0.1814      0.1814    
       0.1814      0.1814      0.1814      0.1814      0.1814      0.1814      0.1814      0.1814      0.1814      0.1814    
       0.1814      0.1814      0.1814      0.1814      0.1814      0.1814      0.1814      0.1814      0.1814      0.1814    
       0.1814      0.1814      0.1814      0.1814      0.1814      0.1814      0.1814      0.1814      0.1814      0.1814    
       0.1814      0.1814      0.1814      0.1814      0.1814      0.1814      0.1814      0.1814      0.1814      0.1814    
       0.1814      0.1814      0.1814      0.1814      0.1814      0.1814      0.1814      0.1814      0.1814      0.1814    
       0.1814      0.1814      0.1814      0.1814      0.1814      0.1814      0.1814      0.1814      0.1814      0.1814    
       0.1814      0.1814      8.6400E-02  8.6400E-02  8.6400E-02  8.6400E-02  8.6400E-02  8.6400E-02  8.6400E-02  8.6400E-02
       8.6400E-02  8.6400E-02  8.6400E-02  8.6400E-02  8.6400E-02  8.6400E-02  8.6400E-02  8.6400E-02  8.6400E-02  8.6400E-02
       8.6400E-02  8.6400E-02  8.6400E-02  8.6400E-02  8.6400E-02  8.6400E-02  8.6400E-02  8.6400E-02  8.6400E-02  8.6400E-02
       8.6400E-02  8.6400E-02  8.6400E-02  8.6400E-02  8.6400E-02  8.6400E-02  8.6400E-02  8.6400E-02  8.6400E-02  8.6400E-02
       8.6400E-02  8.6400E-02  8.6400E-02  8.6400E-02  8.6400E-02  8.6400E-02  8.6400E-02  8.6400E-02  8.6400E-02  8.6400E-02
       8.6400E-02  8.6400E-02  8.6400E-02  8.6400E-02  8.6400E-02  8.6400E-02
  80   8.6400E-02  8.6400E-02  8.6400E-02  8.6400E-02  8.6400E-02  8.6400E-02  8.6400E-02  8.6400E-02  8.6400E-02  8.6400E-02
       8.6400E-02  8.6400E-02  8.6400E-02  0.1814      0.1814      0.1814      0.1814      0.1814      0.1814      0.1814    
       0.3629      0.3629      0.3629      0.3629      0.3629      0.3629      0.3629      0.3629      0.3629      0.3629    
       0.3629      0.3629      0.3629      0.1814      0.1814      0.1814      0.1814      0.1814      0.1814      0.1814    
       0.1814      0.1814      0.1814      0.1814      0.1814      0.1814      0.1814      0.1814      0.1814      0.1814    
       0.1814      0.1814      0.1814      0.1814      0.1814      0.1814      0.1814      0.1814      0.1814      0.1814    
       0.1814      0.1814      0.1814      0.1814      0.1814      0.1814      0.1814      0.1814      0.1814      0.1814    
       0.1814      0.1814      0.1814      0.1814      0.1814      0.1814      0.1814      0.1814      0.1814      0.1814    
       0.1814      0.1814      0.1814      0.1814      0.1814      0.1814      0.1814      0.1814      0.1814      0.1814    
       0.1814      0.1814      0.1814      0.1814      0.1814      0.1814      0.1814      0.1814      0.1814      0.1814    
       0.1814      0.1814      0.1814      0.1814      0.1814      0.1814      0.1814      0.1814      0.1814      0.1814    
       0.1814      0.1814      0.1814      0.1814      0.1814      0.1814      0.1814      0.1814      0.1814      0.1814    
       0.1814      0.1814      0.1814      0.1814      0.1814      0.1814      0.1814      0.1814      0.1814      0.1814    
       0.1814      0.1814      8.6400E-02  8.6400E-02  8.6400E-02  8.6400E-02  8.6400E-02  8.6400E-02  8.6400E-02  8.6400E-02
       8.6400E-02  8.6400E-02  8.6400E-02  8.6400E-02  8.6400E-02  8.6400E-02  8.6400E-02  8.6400E-02  8.6400E-02  8.6400E-02
       8.6400E-02  8.6400E-02  8.6400E-02  8.6400E-02  8.6400E-02  8.6400E-02  8.6400E-02  8.6400E-02  8.6400E-02  8.6400E-02
       8.6400E-02  8.6400E-02  8.6400E-02  8.6400E-02  8.6400E-02  8.6400E-02  8.6400E-02  8.6400E-02  8.6400E-02  8.6400E-02
       8.6400E-02  8.6400E-02  8.6400E-02  8.6400E-02  8.6400E-02  8.6400E-02  8.6400E-02  8.6400E-02  8.6400E-02  8.6400E-02
       8.6400E-02  8.6400E-02  8.6400E-02  8.6400E-02  8.6400E-02  8.6400E-02
  81   8.6400E-02  8.6400E-02  8.6400E-02  8.6400E-02  8.6400E-02  8.6400E-02  8.6400E-02  8.6400E-02  8.6400E-02  8.6400E-02
       8.6400E-02  8.6400E-02  8.6400E-02  0.1814      0.1814      0.1814      0.1814      0.1814      0.1814      0.3629    
       0.3629      0.3629      0.3629      0.3629      0.3629      0.3629      0.3629      0.3629      0.3629      0.3629    
       0.3629      0.3629      0.3629      0.1814      0.1814      0.1814      0.1814      0.1814      0.1814      0.1814    
       0.1814      0.1814      0.1814      0.1814      0.1814      0.1814      0.1814      0.1814      0.1814      0.1814    
       0.1814      0.1814      0.1814      0.1814      0.1814      0.1814      0.1814      0.1814      0.1814      0.1814    
       0.1814      0.1814      0.1814      0.1814      0.1814      0.1814      0.1814      0.1814      0.1814      0.1814    
       0.1814      0.1814      0.1814      0.1814      0.1814      0.1814      0.1814      0.1814      0.1814      0.1814    
       0.1814      0.1814      0.1814      0.1814      0.1814      0.1814      0.1814      0.1814      0.1814      0.1814    
       0.1814      0.1814      0.1814      0.1814      0.1814      0.1814      0.1814      0.1814      0.1814      0.1814    
       0.1814      0.1814      0.1814      0.1814      0.1814      0.1814      0.1814      0.1814      0.1814      0.1814    
       0.1814      0.1814      0.1814      0.1814      0.1814      0.1814      0.1814      0.1814      0.1814      0.1814    
       0.1814      0.1814      0.1814      0.1814      0.1814      0.1814      0.1814      0.1814      0.1814      0.1814    
       0.1814      0.1814      0.1814      8.6400E-02  8.6400E-02  8.6400E-02  8.6400E-02  8.6400E-02  8.6400E-02  8.6400E-02
       8.6400E-02  8.6400E-02  8.6400E-02  8.6400E-02  8.6400E-02  8.6400E-02  8.6400E-02  8.6400E-02  8.6400E-02  8.6400E-02
       8.6400E-02  8.6400E-02  8.6400E-02  8.6400E-02  8.6400E-02  8.6400E-02  8.6400E-02  8.6400E-02  8.6400E-02  8.6400E-02
       8.6400E-02  8.6400E-02  8.6400E-02  8.6400E-02  8.6400E-02  8.6400E-02  8.6400E-02  8.6400E-02  8.6400E-02  8.6400E-02
       8.6400E-02  8.6400E-02  8.6400E-02  8.6400E-02  8.6400E-02  8.6400E-02  8.6400E-02  8.6400E-02  8.6400E-02  8.6400E-02
       8.6400E-02  8.6400E-02  8.6400E-02  8.6400E-02  8.6400E-02  8.6400E-02
  82   8.6400E-02  8.6400E-02  8.6400E-02  8.6400E-02  8.6400E-02  8.6400E-02  8.6400E-02  8.6400E-02  8.6400E-02  8.6400E-02
       8.6400E-02  8.6400E-02  0.1814      0.1814      0.1814      0.1814      0.1814      0.1814      0.1814      0.3629    
       0.3629      0.3629      0.3629      0.3629      0.3629      0.3629      0.3629      0.3629      0.3629      0.3629    
       0.3629      0.3629      0.3629      0.1814      0.1814      0.1814      0.1814      0.1814      0.1814      0.1814    
       0.1814      0.1814      0.1814      0.1814      0.1814      0.1814      0.1814      0.1814      0.1814      0.1814    
       0.1814      0.1814      0.1814      0.1814      0.1814      0.1814      0.1814      0.1814      0.1814      0.1814    
       0.1814      0.1814      0.1814      0.1814      0.1814      0.1814      0.1814      0.1814      0.1814      0.1814    
       0.1814      0.1814      0.1814      0.1814      0.1814      0.1814      0.1814      0.1814      0.1814      0.1814    
       0.1814      0.1814      0.1814      0.1814      0.1814      0.1814      0.1814      0.1814      0.1814      0.1814    
       0.1814      0.1814      0.1814      0.1814      0.1814      0.1814      0.1814      0.1814      0.1814      0.1814    
       0.1814      0.1814      0.1814      0.1814      0.1814      0.1814      0.1814      0.1814      0.1814      0.1814    
       0.1814      0.1814      0.1814      0.1814      0.1814      0.1814      0.1814      0.1814      0.1814      0.1814    
       0.1814      0.1814      0.1814      0.1814      0.1814      0.1814      0.1814      0.1814      0.1814      0.1814    
       0.1814      0.1814      0.1814      0.1814      8.6400E-02  8.6400E-02  8.6400E-02  8.6400E-02  8.6400E-02  8.6400E-02
       8.6400E-02  8.6400E-02  8.6400E-02  8.6400E-02  8.6400E-02  8.6400E-02  8.6400E-02  8.6400E-02  8.6400E-02  8.6400E-02
       8.6400E-02  8.6400E-02  8.6400E-02  8.6400E-02  8.6400E-02  8.6400E-02  8.6400E-02  8.6400E-02  8.6400E-02  8.6400E-02
       8.6400E-02  8.6400E-02  8.6400E-02  8.6400E-02  8.6400E-02  8.6400E-02  8.6400E-02  8.6400E-02  8.6400E-02  8.6400E-02
       8.6400E-02  8.6400E-02  8.6400E-02  8.6400E-02  8.6400E-02  8.6400E-02  8.6400E-02  8.6400E-02  8.6400E-02  8.6400E-02
       8.6400E-02  8.6400E-02  8.6400E-02  8.6400E-02  8.6400E-02  8.6400E-02
  83   8.6400E-02  8.6400E-02  8.6400E-02  8.6400E-02  8.6400E-02  8.6400E-02  8.6400E-02  8.6400E-02  8.6400E-02  8.6400E-02
       8.6400E-02  8.6400E-02  0.1814      0.1814      0.1814      0.1814      0.1814      0.1814      0.1814      0.1814    
       0.3629      0.3629      0.3629      0.3629      0.3629      0.3629      0.3629      0.3629      0.3629      0.3629    
       0.3629      0.3629      0.3629      0.3629      0.3629      0.1814      0.1814      0.1814      0.1814      0.1814    
       0.1814      0.1814      0.1814      0.1814      0.1814      0.1814      0.1814      0.1814      0.1814      0.1814    
       0.1814      0.1814      0.1814      0.1814      0.1814      0.1814      0.1814      0.1814      0.1814      0.1814    
       0.1814      0.1814      0.1814      0.1814      0.1814      0.1814      0.1814      0.1814      0.1814      0.1814    
       0.1814      0.1814      0.1814      0.1814      0.1814      0.1814      0.1814      0.1814      0.1814      0.1814    
       0.1814      0.1814      0.1814      0.1814      0.1814      0.1814      0.1814      0.1814      0.1814      0.1814    
       0.1814      0.1814      0.1814      0.1814      0.1814      0.1814      0.1814      0.1814      0.1814      0.1814    
       0.1814      0.1814      0.1814      0.1814      0.1814      0.1814      0.1814      0.1814      0.1814      0.1814    
       0.1814      0.1814      0.1814      0.1814      0.1814      0.1814      0.1814      0.1814      0.1814      0.1814    
       0.1814      0.1814      0.1814      0.1814      0.1814      0.1814      0.1814      0.1814      0.1814      0.1814    
       0.1814      0.1814      0.1814      0.1814      0.1814      0.1814      8.6400E-02  8.6400E-02  8.6400E-02  8.6400E-02
       8.6400E-02  8.6400E-02  8.6400E-02  8.6400E-02  8.6400E-02  8.6400E-02  8.6400E-02  8.6400E-02  8.6400E-02  8.6400E-02
       8.6400E-02  8.6400E-02  8.6400E-02  8.6400E-02  8.6400E-02  8.6400E-02  8.6400E-02  8.6400E-02  8.6400E-02  8.6400E-02
       8.6400E-02  8.6400E-02  8.6400E-02  8.6400E-02  8.6400E-02  8.6400E-02  8.6400E-02  8.6400E-02  8.6400E-02  8.6400E-02
       8.6400E-02  8.6400E-02  8.6400E-02  8.6400E-02  8.6400E-02  8.6400E-02  8.6400E-02  8.6400E-02  8.6400E-02  8.6400E-02
       8.6400E-02  8.6400E-02  8.6400E-02  8.6400E-02  8.6400E-02  8.6400E-02
  84   8.6400E-02  8.6400E-02  8.6400E-02  8.6400E-02  8.6400E-02  8.6400E-02  8.6400E-02  8.6400E-02  8.6400E-02  8.6400E-02
       8.6400E-02  8.6400E-02  0.1814      0.1814      0.1814      0.1814      0.1814      0.1814      0.1814      0.1814    
       0.3629      0.3629      0.3629      0.3629      0.3629      0.3629      0.3629      0.3629      0.3629      0.3629    
       0.3629      0.3629      0.3629      0.3629      0.3629      0.1814      0.1814      0.1814      0.1814      0.1814    
       0.1814      0.1814      0.1814      0.1814      0.1814      0.1814      0.1814      0.1814      0.1814      0.1814    
       0.1814      0.1814      0.1814      0.1814      0.1814      0.1814      0.1814      0.1814      0.1814      0.1814    
       0.1814      0.1814      0.1814      0.1814      0.1814      0.1814      0.1814      0.1814      0.1814      0.1814    
       0.1814      0.1814      0.1814      0.1814      0.1814      0.1814      0.1814      0.1814      0.1814      0.1814    
       0.1814      0.1814      0.1814      0.1814      0.1814      0.1814      0.1814      0.1814      0.1814      0.1814    
       0.1814      0.1814      0.1814      0.1814      0.1814      0.1814      0.1814      0.1814      0.1814      0.1814    
       0.1814      0.1814      0.1814      0.1814      0.1814      0.1814      0.1814      0.1814      0.1814      0.1814    
       0.1814      0.1814      0.1814      0.1814      0.1814      0.1814      0.1814      0.1814      0.1814      0.1814    
       0.1814      0.1814      0.1814      0.1814      0.1814      0.1814      0.1814      0.1814      0.1814      0.1814    
       0.1814      0.1814      0.1814      0.1814      0.1814      0.1814      0.1814      8.6400E-02  8.6400E-02  8.6400E-02
       8.6400E-02  8.6400E-02  8.6400E-02  8.6400E-02  8.6400E-02  8.6400E-02  8.6400E-02  8.6400E-02  8.6400E-02  8.6400E-02
       8.6400E-02  8.6400E-02  8.6400E-02  8.6400E-02  8.6400E-02  8.6400E-02  8.6400E-02  8.6400E-02  8.6400E-02  8.6400E-02
       8.6400E-02  8.6400E-02  8.6400E-02  8.6400E-02  8.6400E-02  8.6400E-02  8.6400E-02  8.6400E-02  8.6400E-02  8.6400E-02
       8.6400E-02  8.6400E-02  8.6400E-02  8.6400E-02  8.6400E-02  8.6400E-02  8.6400E-02  8.6400E-02  8.6400E-02  8.6400E-02
       8.6400E-02  8.6400E-02  8.6400E-02  8.6400E-02  8.6400E-02  8.6400E-02
  85   8.6400E-02  8.6400E-02  8.6400E-02  8.6400E-02  8.6400E-02  8.6400E-02  8.6400E-02  8.6400E-02  8.6400E-02  8.6400E-02
       8.6400E-02  8.6400E-02  0.1814      0.1814      0.1814      0.1814      0.1814      0.1814      0.1814      0.1814    
       0.3629      0.3629      0.3629      0.3629      0.3629      0.3629      0.3629      0.3629      0.3629      0.3629    
       0.3629      0.3629      0.3629      0.3629      0.3629      0.1814      0.1814      0.1814      0.1814      0.1814    
       0.1814      0.1814      0.1814      0.1814      0.1814      0.1814      0.1814      0.1814      0.1814      0.1814    
       0.1814      0.1814      0.1814      0.1814      0.1814      0.1814      0.1814      0.1814      0.1814      0.1814    
       0.1814      0.1814      0.1814      0.1814      0.1814      0.1814      0.1814      0.1814      0.1814      0.1814    
       0.1814      0.1814      0.1814      0.1814      0.1814      0.1814      0.1814      0.1814      0.1814      0.1814    
       0.1814      0.1814      0.1814      0.1814      0.1814      0.1814      0.1814      0.1814      0.1814      0.1814    
       0.1814      0.1814      0.1814      0.1814      0.1814      0.1814      0.1814      0.1814      0.1814      0.1814    
       0.1814      0.1814      0.1814      0.1814      0.1814      0.1814      0.1814      0.1814      0.1814      0.1814    
       0.1814      0.1814      0.1814      0.1814      0.1814      0.1814      0.1814      0.1814      0.1814      0.1814    
       0.1814      0.1814      0.1814      0.1814      0.1814      0.1814      0.1814      0.1814      0.1814      0.1814    
       0.1814      0.1814      0.1814      0.1814      0.1814      0.1814      0.1814      0.1814      8.6400E-02  8.6400E-02
       8.6400E-02  8.6400E-02  8.6400E-02  8.6400E-02  8.6400E-02  8.6400E-02  8.6400E-02  8.6400E-02  8.6400E-02  8.6400E-02
       8.6400E-02  8.6400E-02  8.6400E-02  8.6400E-02  8.6400E-02  8.6400E-02  8.6400E-02  8.6400E-02  8.6400E-02  8.6400E-02
       8.6400E-02  8.6400E-02  8.6400E-02  8.6400E-02  8.6400E-02  8.6400E-02  8.6400E-02  8.6400E-02  8.6400E-02  8.6400E-02
       8.6400E-02  8.6400E-02  8.6400E-02  8.6400E-02  8.6400E-02  8.6400E-02  8.6400E-02  8.6400E-02  8.6400E-02  8.6400E-02
       8.6400E-02  8.6400E-02  8.6400E-02  8.6400E-02  8.6400E-02  8.6400E-02
  86   8.6400E-02  8.6400E-02  8.6400E-02  8.6400E-02  8.6400E-02  8.6400E-02  8.6400E-02  8.6400E-02  8.6400E-02  8.6400E-02
       8.6400E-02  8.6400E-02  0.1814      0.1814      0.1814      0.1814      0.1814      0.1814      0.1814      0.1814    
       0.3629      0.3629      0.3629      0.3629      0.3629      0.3629      0.3629      0.3629      0.3629      0.3629    
       0.3629      0.3629      0.3629      0.3629      0.3629      0.3629      0.1814      0.1814      0.1814      0.1814    
       0.1814      0.1814      0.1814      0.1814      0.1814      0.1814      0.1814      0.1814      0.1814      0.1814    
       0.1814      0.1814      0.1814      0.1814      0.1814      0.1814      0.1814      0.1814      0.1814      0.1814    
       0.1814      0.1814      0.1814      0.1814      0.1814      0.1814      0.1814      0.1814      0.1814      0.1814    
       0.1814      0.1814      0.1814      0.1814      0.1814      0.1814      0.1814      0.1814      0.1814      0.1814    
       0.1814      0.1814      0.1814      0.1814      0.1814      0.1814      0.1814      0.1814      0.1814      0.1814    
       0.1814      0.1814      0.1814      0.1814      0.1814      0.1814      0.1814      0.1814      0.1814      0.1814    
       0.1814      0.1814      0.1814      0.1814      0.1814      0.1814      0.1814      0.1814      0.1814      0.1814    
       0.1814      0.1814      0.1814      0.1814      0.1814      0.1814      0.1814      0.1814      0.1814      0.1814    
       0.1814      0.1814      0.1814      0.1814      0.1814      0.1814      0.1814      0.1814      0.1814      0.1814    
       0.1814      0.1814      0.1814      0.1814      0.1814      0.1814      0.1814      0.1814      0.1814      0.1814    
       8.6400E-02  8.6400E-02  8.6400E-02  8.6400E-02  8.6400E-02  8.6400E-02  8.6400E-02  8.6400E-02  8.6400E-02  8.6400E-02
       8.6400E-02  8.6400E-02  8.6400E-02  8.6400E-02  8.6400E-02  8.6400E-02  8.6400E-02  8.6400E-02  8.6400E-02  8.6400E-02
       8.6400E-02  8.6400E-02  8.6400E-02  8.6400E-02  8.6400E-02  8.6400E-02  8.6400E-02  8.6400E-02  8.6400E-02  8.6400E-02
       8.6400E-02  8.6400E-02  8.6400E-02  8.6400E-02  8.6400E-02  8.6400E-02  8.6400E-02  8.6400E-02  8.6400E-02  8.6400E-02
       8.6400E-02  8.6400E-02  8.6400E-02  8.6400E-02  8.6400E-02  8.6400E-02
  87   8.6400E-02  8.6400E-02  8.6400E-02  8.6400E-02  8.6400E-02  8.6400E-02  8.6400E-02  8.6400E-02  8.6400E-02  8.6400E-02
       8.6400E-02  8.6400E-02  0.1814      0.1814      0.1814      0.1814      0.1814      0.1814      0.1814      0.1814    
       0.3629      0.3629      0.3629      0.3629      0.3629      0.3629      0.3629      0.3629      0.3629      0.3629    
       0.3629      0.3629      0.3629      0.3629      0.3629      0.3629      0.1814      0.1814      0.1814      0.1814    
       0.1814      0.1814      0.1814      0.1814      0.1814      0.1814      0.1814      0.1814      0.1814      0.1814    
       0.1814      0.1814      0.1814      0.1814      0.1814      0.1814      0.1814      0.1814      0.1814      0.1814    
       0.1814      0.1814      0.1814      0.1814      0.1814      0.1814      0.1814      0.1814      0.1814      0.1814    
       0.1814      0.1814      0.1814      0.1814      0.1814      0.1814      0.1814      0.1814      0.1814      0.1814    
       0.1814      0.1814      0.1814      0.1814      0.1814      0.1814      0.1814      0.1814      0.1814      0.1814    
       0.1814      0.1814      0.1814      0.1814      0.1814      0.1814      0.1814      0.1814      0.1814      0.1814    
       0.1814      0.1814      0.1814      0.1814      0.1814      0.1814      0.1814      0.1814      0.1814      0.1814    
       0.1814      0.1814      0.1814      0.1814      0.1814      0.1814      0.1814      0.1814      0.1814      0.1814    
       0.1814      0.1814      0.1814      0.1814      0.1814      0.1814      0.1814      0.1814      0.1814      0.1814    
       0.1814      0.1814      0.1814      0.1814      0.1814      0.1814      0.1814      0.1814      0.1814      0.1814    
       0.1814      8.6400E-02  8.6400E-02  8.6400E-02  8.6400E-02  8.6400E-02  8.6400E-02  8.6400E-02  8.6400E-02  8.6400E-02
       8.6400E-02  8.6400E-02  8.6400E-02  8.6400E-02  8.6400E-02  8.6400E-02  8.6400E-02  8.6400E-02  8.6400E-02  8.6400E-02
       8.6400E-02  8.6400E-02  8.6400E-02  8.6400E-02  8.6400E-02  8.6400E-02  8.6400E-02  8.6400E-02  8.6400E-02  8.6400E-02
       8.6400E-02  8.6400E-02  8.6400E-02  8.6400E-02  8.6400E-02  8.6400E-02  8.6400E-02  8.6400E-02  8.6400E-02  8.6400E-02
       8.6400E-02  8.6400E-02  8.6400E-02  8.6400E-02  8.6400E-02  8.6400E-02
  88   8.6400E-02  8.6400E-02  8.6400E-02  8.6400E-02  8.6400E-02  8.6400E-02  8.6400E-02  8.6400E-02  8.6400E-02  8.6400E-02
       8.6400E-02  8.6400E-02  0.1814      0.1814      0.1814      0.1814      0.1814      0.1814      0.1814      0.1814    
       0.3629      0.3629      0.3629      0.3629      0.3629      0.3629      0.3629      0.3629      0.3629      0.3629    
       0.3629      0.3629      0.3629      0.3629      0.3629      0.3629      0.1814      0.1814      0.1814      0.1814    
       0.1814      0.1814      0.1814      0.1814      0.1814      0.1814      0.1814      0.1814      0.1814      0.1814    
       0.1814      0.1814      0.1814      0.1814      0.1814      0.1814      0.1814      0.1814      0.1814      0.1814    
       0.1814      0.1814      0.1814      0.1814      0.1814      0.1814      0.1814      0.1814      0.1814      0.1814    
       0.1814      0.1814      0.1814      0.1814      0.1814      0.1814      0.1814      0.1814      0.1814      0.1814    
       0.1814      0.1814      0.1814      0.1814      0.1814      0.1814      0.1814      0.1814      0.1814      0.1814    
       0.1814      0.1814      0.1814      0.1814      0.1814      0.1814      0.1814      0.1814      0.1814      0.1814    
       0.1814      0.1814      0.1814      0.1814      0.1814      0.1814      0.1814      0.1814      0.1814      0.1814    
       0.1814      0.1814      0.1814      0.1814      0.1814      0.1814      0.1814      0.1814      0.1814      0.1814    
       0.1814      0.1814      0.1814      0.1814      0.1814      0.1814      0.1814      0.1814      0.1814      0.1814    
       0.1814      0.1814      0.1814      0.1814      0.1814      0.1814      0.1814      0.1814      0.1814      0.1814    
       0.1814      0.1814      0.1814      8.6400E-02  8.6400E-02  8.6400E-02  8.6400E-02  8.6400E-02  8.6400E-02  8.6400E-02
       8.6400E-02  8.6400E-02  8.6400E-02  8.6400E-02  8.6400E-02  8.6400E-02  8.6400E-02  8.6400E-02  8.6400E-02  8.6400E-02
       8.6400E-02  8.6400E-02  8.6400E-02  8.6400E-02  8.6400E-02  8.6400E-02  8.6400E-02  8.6400E-02  8.6400E-02  8.6400E-02
       8.6400E-02  8.6400E-02  8.6400E-02  8.6400E-02  8.6400E-02  8.6400E-02  8.6400E-02  8.6400E-02  8.6400E-02  8.6400E-02
       8.6400E-02  8.6400E-02  8.6400E-02  8.6400E-02  8.6400E-02  8.6400E-02
  89   8.6400E-02  8.6400E-02  8.6400E-02  8.6400E-02  8.6400E-02  8.6400E-02  8.6400E-02  8.6400E-02  8.6400E-02  8.6400E-02
       8.6400E-02  8.6400E-02  0.1814      0.1814      0.1814      0.1814      0.1814      0.1814      0.1814      0.1814    
       0.3629      0.3629      0.3629      0.3629      0.3629      0.3629      0.3629      0.3629      0.3629      0.3629    
       0.3629      0.3629      0.3629      0.3629      0.3629      0.3629      0.1814      0.1814      0.1814      0.1814    
       0.1814      0.1814      0.1814      0.1814      0.1814      0.1814      0.1814      0.1814      0.1814      0.1814    
       0.1814      0.1814      0.1814      0.1814      0.1814      0.1814      0.1814      0.1814      0.1814      0.1814    
       0.1814      0.1814      0.1814      0.1814      0.1814      0.1814      0.1814      0.1814      0.1814      0.1814    
       0.1814      0.1814      0.1814      0.1814      0.1814      0.1814      0.1814      0.1814      0.1814      0.1814    
       0.1814      0.1814      0.1814      0.1814      0.1814      0.1814      0.1814      0.1814      0.1814      0.1814    
       0.1814      0.1814      0.1814      0.1814      0.1814      0.1814      0.1814      0.1814      0.1814      0.1814    
       0.1814      0.1814      0.1814      0.1814      0.1814      0.1814      0.1814      0.1814      0.1814      0.1814    
       0.1814      0.1814      0.1814      0.1814      0.1814      0.1814      0.1814      0.1814      0.1814      0.1814    
       0.1814      0.1814      0.1814      0.1814      0.1814      0.1814      0.1814      0.1814      0.1814      0.1814    
       0.1814      0.1814      0.1814      0.1814      0.1814      0.1814      0.1814      0.1814      0.1814      0.1814    
       0.1814      0.1814      0.1814      0.1814      8.6400E-02  8.6400E-02  8.6400E-02  8.6400E-02  8.6400E-02  8.6400E-02
       8.6400E-02  8.6400E-02  8.6400E-02  8.6400E-02  8.6400E-02  8.6400E-02  8.6400E-02  8.6400E-02  8.6400E-02  8.6400E-02
       8.6400E-02  8.6400E-02  8.6400E-02  8.6400E-02  8.6400E-02  8.6400E-02  8.6400E-02  8.6400E-02  8.6400E-02  8.6400E-02
       8.6400E-02  8.6400E-02  8.6400E-02  8.6400E-02  8.6400E-02  8.6400E-02  8.6400E-02  8.6400E-02  8.6400E-02  8.6400E-02
       8.6400E-02  8.6400E-02  8.6400E-02  8.6400E-02  8.6400E-02  8.6400E-02

    HYD. COND. ALONG ROWS =  0.345600     FOR LAYER   2

   HORIZ. ANI. (COL./ROW) =   1.00000     FOR LAYER   2

      VERTICAL HYD. COND. =  3.456000E-02 FOR LAYER   2

    HYD. COND. ALONG ROWS =  0.172800     FOR LAYER   3

   HORIZ. ANI. (COL./ROW) =   1.00000     FOR LAYER   3

      VERTICAL HYD. COND. =  1.728000E-02 FOR LAYER   3

    HYD. COND. ALONG ROWS =  8.640000E-03 FOR LAYER   4

   HORIZ. ANI. (COL./ROW) =   1.00000     FOR LAYER   4

      VERTICAL HYD. COND. =  8.640000E-04 FOR LAYER   4

 RIV -- RIVER PACKAGE, VERSION 7, 5/2/2005 INPUT READ FROM UNIT   21
 # RIV: River package file created on 29/01/2021 by ModelMuse version 4.3.0.0.
 No named parameters
 MAXIMUM OF    318 ACTIVE RIVER REACHES AT ONE TIME
 CELL-BY-CELL FLOWS WILL BE SAVED ON UNIT    9
 AUXILIARY RIVER VARIABLE: IFACE           


     0 River parameters

 GHB -- GENERAL-HEAD BOUNDARY PACKAGE, VERSION 7, 5/2/2005
         INPUT READ FROM UNIT   19
 # GHB: General-Head Boundary package file created on 29/01/2021 by ModelMuse version 4.3.0.0.
 No named parameters
 MAXIMUM OF     12 ACTIVE GHB CELLS AT ONE TIME
 CELL-BY-CELL FLOWS WILL BE SAVED ON UNIT    9
 AUXILIARY GHB VARIABLE: IFACE           


     0 GHB parameters

 RCH -- RECHARGE PACKAGE, VERSION 7, 5/2/2005 INPUT READ FROM UNIT   24
 # RCH: Recharge package file created on 29/01/2021 by ModelMuse version 4.3.0.0.
 No named parameters
 OPTION 3 -- RECHARGE TO HIGHEST ACTIVE NODE IN EACH VERTICAL COLUMN
 CELL-BY-CELL FLOWS WILL BE SAVED ON UNIT    9


     0 Recharge parameters


 ***Link-MT3DMS Package v7***
 OPENING LINK-MT3DMS OUTPUT FILE: Model1.ftl                                                                                                                                                                                              
 ON UNIT NUMBER:   136
 FILE TYPE: UNFORMATTED
 HEADER OPTION: EXTENDED
 ***Link-MT3DMS Package v7***


 OBS2BAS7 -- HEAD OBSERVATIONS, VERSION 2.0, 2/28/2006
 INPUT READ FROM UNIT  41
 # HOB: Head Observation package file created on 29/01/2021 by ModelMuse version 4.3.0.0.

 NUMBER OF HEADS....................................:    6
   NUMBER OF MULTILAYER HEADS.......................:    0
   MAXIMUM NUMBER OF LAYERS FOR MULTILAYER HEADS....:    2
 HEAD OBSERVATIONS WILL BE SAVED ON UNIT............:   42
 SIMULATED EQUIVALENT HEAD AT DRY CELLS WILL BE:   -999999.    

 OBSERVED HEAD DATA -- TIME OFFSETS ARE MULTIPLIED BY:   1.0000    

                    REFER.
       OBSERVATION  STRESS    TIME
  OBS#    NAME      PERIOD   OFFSET    OBSERVATION
     1 SM-1             3    7528.       3518.    
 Observation within a steady-state time step has been moved to the end of the time step.
     2 SM-2             3    7528.       3505.    
 Observation within a steady-state time step has been moved to the end of the time step.
     3 SM-3             3    7528.       3504.    
 Observation within a steady-state time step has been moved to the end of the time step.
     4 SM-4             3    7528.       3497.    
 Observation within a steady-state time step has been moved to the end of the time step.
     5 SM-5             3    7528.       3494.    
 Observation within a steady-state time step has been moved to the end of the time step.
     6 SM-6             3    7528.       3511.    
 Observation within a steady-state time step has been moved to the end of the time step.

                                                     HEAD CHANGE
                                                      REFERENCE
        OBSERVATION                   ROW     COL    OBSERVATION
  OBS#     NAME       LAY  ROW  COL  OFFSET  OFFSET   (IF > 0)
     1  SM-1            1   38  170   0.132   0.062        0
     2  SM-2            1   64  107  -0.348  -0.019        0
     3  SM-3            1   44   95  -0.253  -0.268        0
     4  SM-4            1   67   45   0.225  -0.286        0
     5  SM-5            1   29   27   0.459   0.361        0
     6  SM-6            1   28  135   0.310   0.052        0
1
                            STRESS PERIOD NO.    1, LENGTH =   13514.00    
                            -----------------------------------------------

                              NUMBER OF TIME STEPS =     6

                               MULTIPLIER FOR DELT =     1.000

                            INITIAL TIME STEP SIZE =   2252.333    

 REACH NO.  LAYER   ROW   COL     STAGE      CONDUCTANCE     BOTTOM EL.         IFACE           
 -----------------------------------------------------------------------------------------------
      1      1     89     26       3502.           8.640           3501.           0.000    
      2      1     88     26       3507.           8.640           3506.           0.000    
      3      1     87     26       3505.           8.640           3504.           0.000    
      4      1     86     26       3505.           8.640           3504.           0.000    
      5      1     85     26       3504.           8.640           3503.           0.000    
      6      1     85     27       3500.           8.640           3499.           0.000    
      7      1     84     27       3501.           8.640           3500.           0.000    
      8      1     83     27       3501.           8.640           3500.           0.000    
      9      1     82     27       3500.           8.640           3499.           0.000    
     10      1     81     27       3500.           8.640           3499.           0.000    
     11      1     81     26       3495.           8.640           3494.           0.000    
     12      1     80     26       3497.           8.640           3496.           0.000    
     13      1     80     25       3497.           8.640           3496.           0.000    
     14      1     79     25       3500.           8.640           3499.           0.000    
     15      1     78     25       3499.           8.640           3498.           0.000    
     16      1     78     24       3499.           8.640           3498.           0.000    
     17      1     77     24       3500.           8.640           3499.           0.000    
     18      1     76     24       3500.           8.640           3499.           0.000    
     19      1     76     23       3500.           8.640           3499.           0.000    
     20      1     75     23       3501.           8.640           3500.           0.000    
     21      1     74     23       3501.           8.640           3500.           0.000    
     22      1     74     22       3501.           8.640           3500.           0.000    
     23      1     73     22       3499.           8.640           3498.           0.000    
     24      1     72     22       3499.           8.640           3498.           0.000    
     25      1     71     22       3499.           8.640           3498.           0.000    
     26      1     71     21       3499.           8.640           3498.           0.000    
     27      1     70     21       3498.           8.640           3497.           0.000    
     28      1     69     21       3498.           8.640           3497.           0.000    
     29      1     68     21       3498.           8.640           3497.           0.000    
     30      1     67     21       3500.           8.640           3499.           0.000    
     31      1     67     20       3500.           8.640           3499.           0.000    
     32      1     66     20       3500.           8.640           3499.           0.000    
     33      1     65     20       3500.           8.640           3499.           0.000    
     34      1     64     20       3499.           8.640           3498.           0.000    
     35      1     63     20       3499.           8.640           3498.           0.000    
     36      1     63     19       3501.           8.640           3500.           0.000    
     37      1     62     19       3501.           8.640           3500.           0.000    
     38      1     61     19       3498.           8.640           3497.           0.000    
     39      1     60     19       3498.           8.640           3497.           0.000    
     40      1     60     18       3498.           8.640           3497.           0.000    
     41      1     59     18       3498.           8.640           3497.           0.000    
     42      1     58     18       3495.           8.640           3494.           0.000    
     43      1     58     17       3495.           8.640           3494.           0.000    
     44      1     57     17       3495.           8.640           3494.           0.000    
     45      1     56     17       3495.           8.640           3494.           0.000    
     46      1     55     17       3495.           8.640           3494.           0.000    
     47      1     54     17       3495.           8.640           3494.           0.000    
     48      1     54     16       3494.           8.640           3493.           0.000    
     49      1     53     16       3494.           8.640           3493.           0.000    
     50      1     52     16       3494.           8.640           3493.           0.000    
     51      1     51     16       3494.           8.640           3493.           0.000    
     52      1     51     15       3494.           8.640           3493.           0.000    
     53      1     50     15       3494.           8.640           3493.           0.000    
     54      1     49     15       3497.           8.640           3496.           0.000    
     55      1     48     15       3497.           8.640           3496.           0.000    
     56      1     47     15       3497.           8.640           3496.           0.000    
     57      1     46     15       3496.           8.640           3495.           0.000    
     58      1     46     14       3495.           8.640           3494.           0.000    
     59      1     45     14       3495.           8.640           3494.           0.000    
     60      1     44     14       3495.           8.640           3494.           0.000    
     61      1     43     14       3493.           8.640           3492.           0.000    
     62      1     42     14       3493.           8.640           3492.           0.000    
     63      1     41     14       3493.           8.640           3492.           0.000    
     64      1     40     14       3493.           8.640           3492.           0.000    
     65      1     40     13       3489.           8.640           3488.           0.000    
     66      1     39     13       3493.           8.640           3492.           0.000    
     67      1     38     13       3493.           8.640           3492.           0.000    
     68      1     37     13       3493.           8.640           3492.           0.000    
     69      1     36     13       3494.           8.640           3493.           0.000    
     70      1     35     13       3494.           8.640           3493.           0.000    
     71      1     34     13       3494.           8.640           3493.           0.000    
     72      1     34     12       3489.           8.640           3488.           0.000    
     73      1     33     12       3490.           8.640           3489.           0.000    
     74      1     32     12       3490.           8.640           3489.           0.000    
     75      1     31     12       3490.           8.640           3489.           0.000    
     76      1     30     12       3491.           8.640           3490.           0.000    
     77      1     29     12       3491.           8.640           3490.           0.000    
     78      1     28     12       3491.           8.640           3490.           0.000    
     79      1     27     12       3490.           8.640           3489.           0.000    
     80      1     26     12       3490.           8.640           3489.           0.000    
     81      1     26     11       3491.           8.640           3490.           0.000    
     82      1     25     11       3489.           8.640           3488.           0.000    
     83      1     24     11       3488.           8.640           3487.           0.000    
     84      1     23     11       3490.           8.640           3489.           0.000    
     85      1     22     11       3491.           8.640           3490.           0.000    
     86      1     21     11       3491.           8.640           3490.           0.000    
     87      1     20     11       3489.           8.640           3488.           0.000    
     88      1     19     11       3484.           8.640           3483.           0.000    
     89      1     18     11       3483.           8.640           3482.           0.000    
     90      1     17     11       3482.           8.640           3481.           0.000    
     91      1     16     11       3482.           8.640           3481.           0.000    
     92      1     15     11       3481.           8.640           3480.           0.000    
     93      1     14     11       3479.           8.640           3478.           0.000    
     94      1     13     11       3479.           8.640           3478.           0.000    
     95      1     12     11       3482.           8.640           3481.           0.000    
     96      1     11     11       3484.           8.640           3483.           0.000    
     97      1     11     10       3482.           8.640           3481.           0.000    
     98      1     10     10       3482.           8.640           3481.           0.000    
     99      1      9     10       3482.           8.640           3481.           0.000    
    100      1      9      9       3482.           8.640           3481.           0.000    
    101      1      8      9       3484.           8.640           3483.           0.000    
    102      1      8      8       3483.           8.640           3482.           0.000    
    103      1      7      8       3482.           8.640           3481.           0.000    
    104      1      7      7       3483.           8.640           3482.           0.000    
    105      1      6      7       3481.           8.640           3480.           0.000    
    106      1      5      7       3480.           8.640           3479.           0.000    
    107      1      4      7       3480.           8.640           3479.           0.000    
    108      1      3      7       3480.           8.640           3479.           0.000    
    109      1      2      7       3481.           8.640           3480.           0.000    
    110      1      1      7       3484.           8.640           3483.           0.000    
    111      1     13    186       3547.           8.640           3546.           0.000    
    112      1     13    185       3544.           8.640           3543.           0.000    
    113      1     12    185       3544.           8.640           3543.           0.000    
    114      1     12    184       3542.           8.640           3541.           0.000    
    115      1     12    183       3540.           8.640           3539.           0.000    
    116      1     12    182       3540.           8.640           3539.           0.000    
    117      1     11    182       3543.           8.640           3542.           0.000    
    118      1     11    181       3542.           8.640           3541.           0.000    
    119      1     11    180       3541.           8.640           3540.           0.000    
    120      1     11    179       3543.           8.640           3542.           0.000    
    121      1     11    178       3544.           8.640           3543.           0.000    
    122      1     11    177       3543.           8.640           3542.           0.000    
    123      1     11    176       3543.           8.640           3542.           0.000    
    124      1     10    176       3543.           8.640           3542.           0.000    
    125      1     10    175       3540.           8.640           3539.           0.000    
    126      1     10    174       3537.           8.640           3536.           0.000    
    127      1     10    173       3536.           8.640           3535.           0.000    
    128      1     11    173       3536.           8.640           3535.           0.000    
    129      1     11    172       3536.           8.640           3535.           0.000    
    130      1     12    172       3531.           8.640           3530.           0.000    
    131      1     12    171       3531.           8.640           3530.           0.000    
    132      1     13    171       3529.           8.640           3528.           0.000    
    133      1     13    170       3527.           8.640           3526.           0.000    
    134      1     14    170       3527.           8.640           3526.           0.000    
    135      1     15    170       3530.           8.640           3529.           0.000    
    136      1     15    169       3530.           8.640           3529.           0.000    
    137      1     16    169       3531.           8.640           3530.           0.000    
    138      1     16    168       3531.           8.640           3530.           0.000    
    139      1     17    168       3531.           8.640           3530.           0.000    
    140      1     17    167       3532.           8.640           3531.           0.000    
    141      1     17    166       3532.           8.640           3531.           0.000    
    142      1     17    165       3531.           8.640           3530.           0.000    
    143      1     17    164       3531.           8.640           3530.           0.000    
    144      1     16    164       3531.           8.640           3530.           0.000    
    145      1     16    163       3529.           8.640           3528.           0.000    
    146      1     16    162       3529.           8.640           3528.           0.000    
    147      1     16    161       3529.           8.640           3528.           0.000    
    148      1     16    160       3527.           8.640           3526.           0.000    
    149      1     16    159       3527.           8.640           3526.           0.000    
    150      1     16    158       3527.           8.640           3526.           0.000    
    151      1     15    158       3527.           8.640           3526.           0.000    
    152      1     15    157       3526.           8.640           3525.           0.000    
    153      1     15    156       3526.           8.640           3525.           0.000    
    154      1     15    155       3526.           8.640           3525.           0.000    
    155      1     15    154       3525.           8.640           3524.           0.000    
    156      1     16    154       3524.           8.640           3523.           0.000    
    157      1     16    153       3524.           8.640           3523.           0.000    
    158      1     16    152       3524.           8.640           3523.           0.000    
    159      1     16    151       3522.           8.640           3521.           0.000    
    160      1     16    150       3522.           8.640           3521.           0.000    
    161      1     16    149       3522.           8.640           3521.           0.000    
    162      1     16    148       3519.           8.640           3518.           0.000    
    163      1     16    147       3519.           8.640           3518.           0.000    
    164      1     16    146       3519.           8.640           3518.           0.000    
    165      1     16    145       3519.           8.640           3518.           0.000    
    166      1     16    144       3519.           8.640           3518.           0.000    
    167      1     16    143       3519.           8.640           3518.           0.000    
    168      1     16    142       3517.           8.640           3516.           0.000    
    169      1     16    141       3517.           8.640           3516.           0.000    
    170      1     16    140       3517.           8.640           3516.           0.000    
    171      1     16    139       3515.           8.640           3514.           0.000    
    172      1     16    138       3515.           8.640           3514.           0.000    
    173      1     16    137       3515.           8.640           3514.           0.000    
    174      1     17    137       3515.           8.640           3514.           0.000    
    175      1     17    136       3514.           8.640           3513.           0.000    
    176      1     17    135       3514.           8.640           3513.           0.000    
    177      1     17    134       3514.           8.640           3513.           0.000    
    178      1     17    133       3514.           8.640           3513.           0.000    
    179      1     17    132       3514.           8.640           3513.           0.000    
    180      1     17    131       3514.           8.640           3513.           0.000    
    181      1     17    130       3514.           8.640           3513.           0.000    
    182      1     17    129       3517.           8.640           3516.           0.000    
    183      1     17    128       3517.           8.640           3516.           0.000    
    184      1     18    128       3515.           8.640           3514.           0.000    
    185      1     18    127       3515.           8.640           3514.           0.000    
    186      1     18    126       3514.           8.640           3513.           0.000    
    187      1     19    126       3511.           8.640           3510.           0.000    
    188      1     19    125       3511.           8.640           3510.           0.000    
    189      1     19    124       3511.           8.640           3510.           0.000    
    190      1     19    123       3505.           8.640           3504.           0.000    
    191      1     20    123       3505.           8.640           3504.           0.000    
    192      1     20    122       3505.           8.640           3504.           0.000    
    193      1     20    121       3505.           8.640           3504.           0.000    
    194      1     20    120       3504.           8.640           3503.           0.000    
    195      1     21    120       3506.           8.640           3505.           0.000    
    196      1     21    119       3506.           8.640           3505.           0.000    
    197      1     21    118       3506.           8.640           3505.           0.000    
    198      1     21    117       3509.           8.640           3508.           0.000    
    199      1     21    116       3509.           8.640           3508.           0.000    
    200      1     21    115       3509.           8.640           3508.           0.000    
    201      1     21    114       3512.           8.640           3511.           0.000    
    202      1     22    114       3512.           8.640           3511.           0.000    
    203      1     22    113       3512.           8.640           3511.           0.000    
    204      1     22    112       3512.           8.640           3511.           0.000    
    205      1     22    111       3515.           8.640           3514.           0.000    
    206      1     22    110       3515.           8.640           3514.           0.000    
    207      1     22    109       3515.           8.640           3514.           0.000    
    208      1     22    108       3515.           8.640           3514.           0.000    
    209      1     22    107       3515.           8.640           3514.           0.000    
    210      1     22    106       3515.           8.640           3514.           0.000    
    211      1     22    105       3514.           8.640           3513.           0.000    
    212      1     22    104       3514.           8.640           3513.           0.000    
    213      1     22    103       3514.           8.640           3513.           0.000    
    214      1     22    102       3510.           8.640           3509.           0.000    
    215      1     22    101       3510.           8.640           3509.           0.000    
    216      1     22    100       3510.           8.640           3509.           0.000    
    217      1     22     99       3506.           8.640           3505.           0.000    
    218      1     22     98       3508.           8.640           3507.           0.000    
    219      1     22     97       3508.           8.640           3507.           0.000    
    220      1     22     96       3510.           8.640           3509.           0.000    
    221      1     22     95       3510.           8.640           3509.           0.000    
    222      1     22     94       3510.           8.640           3509.           0.000    
    223      1     22     93       3510.           8.640           3509.           0.000    
    224      1     22     92       3510.           8.640           3509.           0.000    
    225      1     22     91       3510.           8.640           3509.           0.000    
    226      1     22     90       3509.           8.640           3508.           0.000    
    227      1     22     89       3509.           8.640           3508.           0.000    
    228      1     22     88       3509.           8.640           3508.           0.000    
    229      1     22     87       3509.           8.640           3508.           0.000    
    230      1     22     86       3509.           8.640           3508.           0.000    
    231      1     22     85       3509.           8.640           3508.           0.000    
    232      1     22     84       3506.           8.640           3505.           0.000    
    233      1     22     83       3506.           8.640           3505.           0.000    
    234      1     22     82       3506.           8.640           3505.           0.000    
    235      1     22     81       3502.           8.640           3501.           0.000    
    236      1     22     80       3502.           8.640           3501.           0.000    
    237      1     22     79       3502.           8.640           3501.           0.000    
    238      1     22     78       3499.           8.640           3498.           0.000    
    239      1     22     77       3499.           8.640           3498.           0.000    
    240      1     22     76       3499.           8.640           3498.           0.000    
    241      1     23     76       3498.           8.640           3497.           0.000    
    242      1     23     75       3495.           8.640           3494.           0.000    
    243      1     23     74       3495.           8.640           3494.           0.000    
    244      1     23     73       3495.           8.640           3494.           0.000    
    245      1     23     72       3495.           8.640           3494.           0.000    
    246      1     23     71       3496.           8.640           3495.           0.000    
    247      1     23     70       3496.           8.640           3495.           0.000    
    248      1     23     69       3496.           8.640           3495.           0.000    
    249      1     23     68       3496.           8.640           3495.           0.000    
    250      1     23     67       3496.           8.640           3495.           0.000    
    251      1     23     66       3496.           8.640           3495.           0.000    
    252      1     23     65       3497.           8.640           3496.           0.000    
    253      1     23     64       3497.           8.640           3496.           0.000    
    254      1     23     63       3497.           8.640           3496.           0.000    
    255      1     23     62       3498.           8.640           3497.           0.000    
    256      1     23     61       3498.           8.640           3497.           0.000    
    257      1     23     60       3498.           8.640           3497.           0.000    
    258      1     23     59       3497.           8.640           3496.           0.000    
    259      1     23     58       3497.           8.640           3496.           0.000    
    260      1     23     57       3497.           8.640           3496.           0.000    
    261      1     23     56       3496.           8.640           3495.           0.000    
    262      1     23     55       3496.           8.640           3495.           0.000    
    263      1     23     54       3496.           8.640           3495.           0.000    
    264      1     23     53       3495.           8.640           3494.           0.000    
    265      1     23     52       3495.           8.640           3494.           0.000    
    266      1     23     51       3495.           8.640           3494.           0.000    
    267      1     22     51       3495.           8.640           3494.           0.000    
    268      1     22     50       3497.           8.640           3496.           0.000    
    269      1     22     49       3497.           8.640           3496.           0.000    
    270      1     21     49       3497.           8.640           3496.           0.000    
    271      1     21     48       3497.           8.640           3496.           0.000    
    272      1     21     47       3494.           8.640           3493.           0.000    
    273      1     21     46       3494.           8.640           3493.           0.000    
    274      1     21     45       3494.           8.640           3493.           0.000    
    275      1     21     44       3492.           8.640           3491.           0.000    
    276      1     20     44       3493.           8.640           3492.           0.000    
    277      1     20     43       3493.           8.640           3492.           0.000    
    278      1     20     42       3493.           8.640           3492.           0.000    
    279      1     19     42       3495.           8.640           3494.           0.000    
    280      1     19     41       3494.           8.640           3493.           0.000    
    281      1     19     40       3494.           8.640           3493.           0.000    
    282      1     19     39       3494.           8.640           3493.           0.000    
    283      1     19     38       3492.           8.640           3491.           0.000    
    284      1     18     38       3493.           8.640           3492.           0.000    
    285      1     18     37       3493.           8.640           3492.           0.000    
    286      1     18     36       3493.           8.640           3492.           0.000    
    287      1     17     36       3500.           8.640           3499.           0.000    
    288      1     17     35       3496.           8.640           3495.           0.000    
    289      1     17     34       3496.           8.640           3495.           0.000    
    290      1     16     34       3496.           8.640           3495.           0.000    
    291      1     16     33       3496.           8.640           3495.           0.000    
    292      1     16     32       3493.           8.640           3492.           0.000    
    293      1     16     31       3493.           8.640           3492.           0.000    
    294      1     16     30       3493.           8.640           3492.           0.000    
    295      1     16     29       3489.           8.640           3488.           0.000    
    296      1     15     29       3499.           8.640           3498.           0.000    
    297      1     15     28       3499.           8.640           3498.           0.000    
    298      1     15     27       3499.           8.640           3498.           0.000    
    299      1     15     26       3494.           8.640           3493.           0.000    
    300      1     15     25       3494.           8.640           3493.           0.000    
    301      1     15     24       3494.           8.640           3493.           0.000    
    302      1     15     23       3488.           8.640           3487.           0.000    
    303      1     15     22       3488.           8.640           3487.           0.000    
    304      1     15     21       3488.           8.640           3487.           0.000    
    305      1     15     20       3488.           8.640           3487.           0.000    
    306      1     15     19       3485.           8.640           3484.           0.000    
    307      1     15     18       3485.           8.640           3484.           0.000    
    308      1     15     17       3485.           8.640           3484.           0.000    
    309      1     14     17       3486.           8.640           3485.           0.000    
    310      1     14     16       3482.           8.640           3481.           0.000    
    311      1     13     16       3486.           8.640           3485.           0.000    
    312      1     13     15       3486.           8.640           3485.           0.000    
    313      1     12     15       3489.           8.640           3488.           0.000    
    314      1     12     14       3485.           8.640           3484.           0.000    
    315      1     11     14       3488.           8.640           3487.           0.000    
    316      1     11     13       3487.           8.640           3486.           0.000    
    317      1     11     12       3486.           8.640           3485.           0.000    
    318      1     11     11       3484.           8.640           3483.           0.000    

    318 RIVER REACHES

 BOUND. NO. LAYER   ROW   COL     STAGE      CONDUCTANCE         IFACE           
 --------------------------------------------------------------------------------
      1      1     15    186       3524.           8.640           0.000    
      2      1     16    186       3524.           8.640           0.000    
      3      1     17    186       3524.           8.640           0.000    
      4      1     18    186       3524.           8.640           0.000    
      5      1     19    186       3524.           8.640           0.000    
      6      1     20    186       3524.           8.640           0.000    
      7      1     21    186       3524.           8.640           0.000    
      8      1     22    186       3524.           8.640           0.000    
      9      1     23    186       3524.           8.640           0.000    
     10      1     24    186       3524.           8.640           0.000    
     11      1     25    186       3524.           8.640           0.000    
     12      1     26    186       3524.           8.640           0.000    

     12 GHB CELLS

                 RECHARGE =  4.109589E-04
 
 SOLVING FOR HEAD 
                                                   Max.-Head-Change                         Max.-Flux-Residual
  Residual-Control   Outer-Iter.   Inner-Iter.     Column Row Layer    Maximum-Head-Change  Column Row Layer    Maximum-Flux-Residual          L2-NORM 
          0                 1          50           184   89     4      -0.1008251813E+03     129   82    1        -0.7832305490E+04      0.5814349276E+05
          0                 2          50           185   12     1      -0.9070505918E+01     186   13    1        -0.7992291513E+02      0.2994803501E+03
          0                 3          50           164    7     1      -0.4012381926E+01     170   14    1        -0.6727080854E+02      0.5196018360E+03
          0                 4          51           126   81     1      -0.1376301282E+01     154   14    1        -0.3077665428E+02      0.2503748689E+03
          0                 5          16           134   80     1       0.6071141904E+00     140   15    1         0.6556097835E+01      0.5347218159E+02
          0                 6          12           100   88     1       0.7118501275E+00     140   15    1         0.7643101801E+00      0.3979482463E+01
          0                 7           7           100   88     1       0.7997769183E+00     140   15    1         0.3816260764E+00      0.2810986275E+01
          0                 8           2           100   88     1       0.2496328046E-01     100   89    1        -0.2833405624E-01      0.2570309741E+00
          0                 9           1           146   79     1      -0.1999933265E-02      99   55    1        -0.4258176661E-02      0.1128999685E+00
          0                10           1           146   79     1      -0.5340681638E-03     154   14    1        -0.3014910500E-02      0.1092954429E+00
                                                   Max.-Head-Change                         Max.-Flux-Residual
  Residual-Control   Outer-Iter.   Inner-Iter.     Column Row Layer    Maximum-Head-Change  Column Row Layer    Maximum-Flux-Residual          L2-NORM 
          0                11           1           146   79     1      -0.3409839565E-03     154   14    1        -0.3307324485E-02      0.1094298346E+00
          0                12           1           146   79     1      -0.4011530182E-03     154   14    1        -0.3188750707E-02      0.1085265549E+00
          0                13           1           146   79     1      -0.3445542965E-03     154   14    1        -0.3314000787E-02      0.1083352056E+00
          0                14           1           146   79     1      -0.3882590791E-03     154   14    1        -0.3271227935E-02      0.1076386124E+00
          0                15           1           146   79     1      -0.3496281957E-03     154   14    1        -0.3350633779E-02      0.1073554442E+00
          0                16           1           146   79     1      -0.3810859854E-03     154   14    1        -0.3332574968E-02      0.1067317938E+00
          0                17           1           146   79     1      -0.3516365838E-03     154   14    1        -0.3385864431E-02      0.1063942186E+00
          0                18           1           146   79     1      -0.3761651454E-03     154   14    1        -0.3376874025E-02      0.1058042639E+00
          0                19           1           146   79     1      -0.3517062320E-03     154   14    1        -0.3414788633E-02      0.1054330624E+00
          0                20           1           146   79     1      -0.3722038023E-03     154   14    1        -0.3407811862E-02      0.1048585573E+00
                                                   Max.-Head-Change                         Max.-Flux-Residual
  Residual-Control   Outer-Iter.   Inner-Iter.     Column Row Layer    Maximum-Head-Change  Column Row Layer    Maximum-Flux-Residual          L2-NORM 
          0                21           1           146   79     1      -0.3503749088E-03     154   14    1        -0.3436271218E-02      0.1044658152E+00
          0                22           1           146   79     1      -0.3685005308E-03     154   14    1        -0.3427704563E-02      0.1038973437E+00
          0                23           1           146   79     1      -0.3478388037E-03     154   14    1        -0.3450244549E-02      0.1034907812E+00
          0                24           1           146   79     1      -0.3645650353E-03     154   14    1        -0.3437999170E-02      0.1029233186E+00
          0                25           1           146   79     1      -0.3441143179E-03     154   14    1        -0.3456935519E-02      0.1025083785E+00
          0                26           1           146   79     1      -0.3599804503E-03     154   14    1        -0.3439619672E-02      0.1019395549E+00
          0                27           1           146   79     1      -0.3391712411E-03     154   14    1        -0.3456598148E-02      0.1015203780E+00
          0                28           1           146   79     1      -0.3544251561E-03     154   14    1        -0.3433280159E-02      0.1009498362E+00
          0                29           1           146   79     1      -0.3331072197E-03     154   14    1        -0.3449543961E-02      0.1005296567E+00
          0                30           1           146   79     1      -0.3478280719E-03     154   14    1        -0.3419877379E-02      0.9995888671E-01
                                                   Max.-Head-Change                         Max.-Flux-Residual
  Residual-Control   Outer-Iter.   Inner-Iter.     Column Row Layer    Maximum-Head-Change  Column Row Layer    Maximum-Flux-Residual          L2-NORM 
          0                31           1           146   79     1      -0.3263193451E-03     154   14    1        -0.3436409053E-02      0.9954007710E-01
          0                32           1           146   79     1      -0.3405248073E-03     154   14    1        -0.3400894348E-02      0.9897200427E-01
          0                33           1           146   79     1      -0.3194778982E-03     154   14    1        -0.3418409382E-02      0.9855590499E-01
          0                34           1           146   79     1      -0.3331431291E-03     154   14    1        -0.3378371592E-02      0.9799384332E-01
          0                35           1           146   79     1      -0.3132031487E-03     154   14    1        -0.3397135762E-02      0.9758058707E-01
          0                36           1           146   79     1      -0.3262165824E-03     154   14    1        -0.3354220302E-02      0.9702685383E-01
          0                37           1           146   79     1      -0.3077493831E-03     154   14    1        -0.3373899846E-02      0.9661556329E-01
          0                38           1           146   79     1      -0.3199303737E-03     154   14    1        -0.3329526982E-02      0.9607095843E-01
          0                39           1           146   79     1      -0.3030230648E-03     154   14    1        -0.3349329345E-02      0.9566043757E-01
          0                40           1           146   79     1      -0.3142024270E-03     154   14    1        -0.3304560785E-02      0.9512474947E-01
                                                   Max.-Head-Change                         Max.-Flux-Residual
  Residual-Control   Outer-Iter.   Inner-Iter.     Column Row Layer    Maximum-Head-Change  Column Row Layer    Maximum-Flux-Residual          L2-NORM 
          0                41           1           146   79     1      -0.2988060199E-03     154   14    1        -0.3323552548E-02      0.9471406156E-01
          0                42           1           146   79     1      -0.3088740533E-03     154   14    1        -0.3279229975E-02      0.9418678819E-01
          0                43           1           146   79     1      -0.2949128494E-03     154   14    1        -0.3296540235E-02      0.9377547045E-01
          0                44           1           146   79     1      -0.3038170234E-03     154   14    1        -0.3253425588E-02      0.9325619336E-01
          0                45           1           146   79     1      -0.2912309601E-03     154   14    1        -0.3268302302E-02      0.9284414400E-01
          0                46           1           146   79     1      -0.2989523172E-03     154   14    1        -0.3227119567E-02      0.9233259737E-01
          0                47           1           146   79     1      -0.2877023326E-03     154   14    1        -0.3238917212E-02      0.9191990848E-01
          0                48           1           146   79     1      -0.2942366571E-03     154   14    1        -0.3200353356E-02      0.9141594328E-01
          0                49           1           146   79     1      -0.2842991077E-03     154   14    1        -0.3208506037E-02      0.9100278237E-01
          0                50           1           146   79     1      -0.2896463303E-03      25   86    1        -0.3181656823E-02      0.9050631528E-01
                                                   Max.-Head-Change                         Max.-Flux-Residual
  Residual-Control   Outer-Iter.   Inner-Iter.     Column Row Layer    Maximum-Head-Change  Column Row Layer    Maximum-Flux-Residual          L2-NORM 
          0                51           1           146   79     1      -0.2810083047E-03     154   14    1        -0.3177209175E-02      0.9009286697E-01
          0                52           1           146   79     1      -0.2851690620E-03      25   86    1        -0.3163745161E-02      0.8960384301E-01
          0                53           1           146   79     1      -0.2778210767E-03     154   14    1        -0.3145166906E-02      0.8919028036E-01
          0                54           1           146   79     1      -0.2807967306E-03      25   86    1        -0.3141165711E-02      0.8870865314E-01
          0                55           1           146   79     1      -0.2747324250E-03     154   14    1        -0.3112515435E-02      0.8829514180E-01
          0                56           1           146   79     1      -0.2765249687E-03      25   86    1        -0.3114176914E-02      0.8782086297E-01
          0                57           1           146   79     1      -0.2717374933E-03     154   14    1        -0.3079386544E-02      0.8740755654E-01
          0                58           1           146   79     1      -0.2723511888E-03      25   86    1        -0.3083097748E-02      0.8694056608E-01
          0                59           1           146   79     1      -0.2688317288E-03     154   14    1        -0.3045896534E-02      0.8652761000E-01
          0                60           1           146   79     1      -0.2682738508E-03      25   86    1        -0.3048301907E-02      0.8606783300E-01
                                                   Max.-Head-Change                         Max.-Flux-Residual
  Residual-Control   Outer-Iter.   Inner-Iter.     Column Row Layer    Maximum-Head-Change  Column Row Layer    Maximum-Flux-Residual          L2-NORM 
          0                61           1           146   79     1      -0.2660101463E-03     154   14    1        -0.3012157162E-02      0.8565536864E-01
          0                62           1           146   79     1      -0.2642922273E-03      25   86    1        -0.3010204062E-02      0.8520271184E-01
          0                63           1           146   79     1      -0.2632675310E-03     154   14    1        -0.2978267730E-02      0.8479087890E-01
          0                64           1           146   79     1      -0.2604057203E-03     154   14    1        -0.2976831282E-02      0.8434523009E-01
          0                65           1           146   79     1      -0.2605989854E-03     154   14    1        -0.2944319043E-02      0.8393417198E-01
          0                66           1           146   79     1      -0.2566136822E-03     154   14    1        -0.2948263776E-02      0.8349540042E-01
          0                67           1           146   79     1      -0.2579989571E-03     154   14    1        -0.2910389798E-02      0.8308526053E-01
          0                68           1           146   79     1      -0.2529152913E-03     154   14    1        -0.2919608494E-02      0.8265321859E-01
          0                69           1           146   79     1      -0.2554624867E-03     154   14    1        -0.2876548562E-02      0.8224414411E-01
          0                70           1           146   79     1      -0.2493096754E-03     154   14    1        -0.2890871372E-02      0.8181867022E-01
                                                   Max.-Head-Change                         Max.-Flux-Residual
  Residual-Control   Outer-Iter.   Inner-Iter.     Column Row Layer    Maximum-Head-Change  Column Row Layer    Maximum-Flux-Residual          L2-NORM 
          0                71           1           146   79     1      -0.2529842066E-03     154   14    1        -0.2842854126E-02      0.8141081071E-01
          0                72           1           146   79     1      -0.2457952788E-03     154   14    1        -0.2862057532E-02      0.8099172991E-01
          0                73           1           146   79     1      -0.2505593794E-03     154   14    1        -0.2809358062E-02      0.8058523701E-01
          0                74           1           146   79     1      -0.2423705645E-03     154   14    1        -0.2833171166E-02      0.8017236771E-01
          0                75           1           146   79     1      -0.2481832976E-03     154   14    1        -0.2776102512E-02      0.7976739294E-01
          0                76           1           146   79     1      -0.2390334474E-03     154   14    1        -0.2804218908E-02      0.7936054699E-01
          0                77           1           146   79     1      -0.2458520525E-03     154   14    1        -0.2743119490E-02      0.7895724081E-01
          0                78           1           146   79     1      -0.2357812267E-03     154   14    1        -0.2775210654E-02      0.7855622678E-01
          0                79           1           146   79     1      -0.2435619031E-03     154   14    1        -0.2710432396E-02      0.7815473778E-01
          0                80           1           146   79     1      -0.2326110940E-03     154   14    1        -0.2746156999E-02      0.7775936571E-01
                                                   Max.-Head-Change                         Max.-Flux-Residual
  Residual-Control   Outer-Iter.   Inner-Iter.     Column Row Layer    Maximum-Head-Change  Column Row Layer    Maximum-Flux-Residual          L2-NORM 
          0                81           1           146   79     1      -0.2413095739E-03     154   14    1        -0.2678063582E-02      0.7735983594E-01
          0                82           1           146   79     1      -0.2295203284E-03     154   14    1        -0.2717067953E-02      0.7696991923E-01
          0                83           1           146   79     1      -0.2390920727E-03     154   14    1        -0.2646027366E-02      0.7657248714E-01
          0                84           1           146   79     1      -0.2265054712E-03     154   14    1        -0.2687957254E-02      0.7618784170E-01
          0                85           1           146   79     1      -0.2369070423E-03     154   14    1        -0.2614333411E-02      0.7579263838E-01
          0                86           1           146   79     1      -0.2235633541E-03     154   14    1        -0.2658837475E-02      0.7541308795E-01
          0                87           1           146   79     1      -0.2347523162E-03     154   14    1        -0.2582987188E-02      0.7502023731E-01
          0                88           1           146   79     1      -0.2206907098E-03     154   14    1        -0.2629726660E-02      0.7464561159E-01
          0                89           1           146   79     1      -0.2326262096E-03     154   14    1        -0.2551991725E-02      0.7425522857E-01
          0                90           1           146   79     1      -0.2178840780E-03     154   14    1        -0.2600639476E-02      0.7388536764E-01
                                                   Max.-Head-Change                         Max.-Flux-Residual
  Residual-Control   Outer-Iter.   Inner-Iter.     Column Row Layer    Maximum-Head-Change  Column Row Layer    Maximum-Flux-Residual          L2-NORM 
          0                91           1           146   79     1      -0.2305274783E-03     154   14    1        -0.2521347953E-02      0.7349755896E-01
          0                92           1           146   79     1      -0.2151398157E-03     154   14    1        -0.2571593039E-02      0.7313230882E-01
          0                93           1           146   79     1      -0.2284549904E-03     154   14    1        -0.2491052030E-02      0.7274717232E-01
          0                94           1           146   79     1      -0.2124551042E-03     154   14    1        -0.2542603994E-02      0.7238639160E-01
          0                95           1           146   79     1      -0.2264076222E-03     154   14    1        -0.2461104188E-02      0.7200401397E-01
          0                96           1           146   79     1      -0.2098265260E-03     154   14    1        -0.2513688290E-02      0.7164756868E-01
          0                97           1           146   79     1      -0.2243848981E-03     154   14    1        -0.2431497560E-02      0.7126802889E-01
          0                98           1           146   79     1      -0.2072510261E-03     154   14    1        -0.2484863973E-02      0.7091579597E-01
          0                99           1           146   79     1      -0.2223865222E-03     154   14    1        -0.2402228769E-02      0.7053916576E-01
          0               100           1           146   79     1      -0.2047256478E-03     154   14    1        -0.2456146409E-02      0.7019104168E-01
                                                   Max.-Head-Change                         Max.-Flux-Residual
  Residual-Control   Outer-Iter.   Inner-Iter.     Column Row Layer    Maximum-Head-Change  Column Row Layer    Maximum-Flux-Residual          L2-NORM 
          0               101           1           146   79     1      -0.2204119479E-03     154   14    1        -0.2373291063E-02      0.6981737453E-01
          0               102           1           146   79     1      -0.2022471557E-03     154   14    1        -0.2427550149E-02      0.6947322395E-01
          0               103           1           146   79     1      -0.2184614555E-03     154   14    1        -0.2344679786E-02      0.6910257724E-01
          0               104           1           146   79     1      -0.1998134020E-03     154   14    1        -0.2399091725E-02      0.6876231567E-01
          0               105           1           146   79     1      -0.2165338122E-03     154   14    1        -0.2316387836E-02      0.6839473129E-01
          0               106           1           146   79     1      -0.1974219715E-03     154   14    1        -0.2370783943E-02      0.6805826588E-01
          0               107           1           146   79     1      -0.2146297959E-03     154   14    1        -0.2288410324E-02      0.6769378369E-01
          0               108           1           146   79     1      -0.1950701466E-03     154   14    1        -0.2342640888E-02      0.6736102932E-01
          0               109           1           146   79     1      -0.2127493253E-03     154   14    1        -0.2260740846E-02      0.6699967926E-01
          0               110           1           146   79     1      -0.1927557067E-03     154   14    1        -0.2314673970E-02      0.6667054946E-01
                                                   Max.-Head-Change                         Max.-Flux-Residual
  Residual-Control   Outer-Iter.   Inner-Iter.     Column Row Layer    Maximum-Head-Change  Column Row Layer    Maximum-Flux-Residual          L2-NORM 
          0               111           1           146   79     1      -0.2108924593E-03     154   14    1        -0.2233372885E-02      0.6631235029E-01
          0               112           1           146   79     1      -0.1904767246E-03     154   14    1        -0.2286896459E-02      0.6598678780E-01
          0               113           1           146   79     1      -0.2090593858E-03     154   14    1        -0.2206302364E-02      0.6563177316E-01
          0               114           1           146   79     1      -0.1882312339E-03     154   14    1        -0.2259317553E-02      0.6530970419E-01
          0               115           1           146   79     1      -0.2072504169E-03     154   14    1        -0.2179522999E-02      0.6495787754E-01
          0               116           1           146   79     1      -0.1860173386E-03     154   14    1        -0.2231948194E-02      0.6463924045E-01
          0               117           1           146   79     1      -0.2054653218E-03     154   14    1        -0.2153030364E-02      0.6429060777E-01
          0               118           1           146   79     1      -0.1838335915E-03     154   14    1        -0.2204794437E-02      0.6397534422E-01
          0               119           1           146   79     1      -0.2037045583E-03     154   14    1        -0.2126820269E-02      0.6362991038E-01
          0               120           1           146   79     1      -0.1816780183E-03     154   14    1        -0.2177865827E-02      0.6331796371E-01
                                                   Max.-Head-Change                         Max.-Flux-Residual
  Residual-Control   Outer-Iter.   Inner-Iter.     Column Row Layer    Maximum-Head-Change  Column Row Layer    Maximum-Flux-Residual          L2-NORM 
          0               121           1           146   79     1      -0.2019685212E-03     154   14    1        -0.2100887359E-02      0.6297572719E-01
          0               122           1           146   79     1      -0.1795491657E-03     154   14    1        -0.2151170513E-02      0.6266704706E-01
          0               123           1           146   79     1      -0.2002572926E-03     154   14    1        -0.2075226861E-02      0.6232800291E-01
          0               124           1           146   79     1      -0.1774457079E-03     154   14    1        -0.2124714898E-02      0.6202254073E-01
          0               125           1           146   79     1      -0.1985711229E-03     154   14    1        -0.2049834351E-02      0.6168668026E-01
          0               126           1           146   79     1      -0.1753663169E-03     154   14    1        -0.2098504803E-02      0.6138439103E-01
          0               127           1           146   79     1      -0.1969103032E-03      18   76    1        -0.2027197741E-02      0.6105170332E-01
          0               128           1           146   79     1      -0.1733097178E-03     154   14    1        -0.2072542557E-02      0.6075254241E-01
          0               129           1           146   79     1      -0.1952752234E-03      18   76    1        -0.2011431498E-02      0.6042301392E-01
          0               130           1           146   79     1      -0.1712745997E-03     154   14    1        -0.2046834794E-02      0.6012694040E-01

    ------------------------------------------------
       NWT REQUIRED          130 OUTER ITERATIONS 
       AND A TOTAL OF        360 INNER ITERATIONS.
    ------------------------------------------------

 OUTPUT CONTROL FOR STRESS PERIOD    1   TIME STEP    1
    SAVE DRAWDOWN FOR ALL LAYERS
    SAVE BUDGET
    PRINT BUDGET
 UBDSV2 SAVING "   CONSTANT HEAD" ON UNIT   9 AT TIME STEP  1, STRESS PERIOD   1
 UBDSV1 SAVING "FLOW RIGHT FACE " ON UNIT   9 AT TIME STEP  1, STRESS PERIOD   1
 UBDSV1 SAVING "FLOW FRONT FACE " ON UNIT   9 AT TIME STEP  1, STRESS PERIOD   1
 UBDSV1 SAVING "FLOW LOWER FACE " ON UNIT   9 AT TIME STEP  1, STRESS PERIOD   1
 UBDSV4 SAVING "   RIVER LEAKAGE" ON UNIT   9 AT TIME STEP  1, STRESS PERIOD   1
 UBDSV4 SAVING " HEAD DEP BOUNDS" ON UNIT   9 AT TIME STEP  1, STRESS PERIOD   1
 UBDSV3 SAVING "        RECHARGE" ON UNIT   9 AT TIME STEP  1, STRESS PERIOD   1

 SAVING SATURATED THICKNESS AND FLOW TERMS ON UNIT  136 FOR MT3DMS
 BY THE LINK-MT3DMS PACKAGE V7 AT TIME STEP    1, STRESS PERIOD    1


 DRAWDOWN WILL BE SAVED ON UNIT   38 AT END OF TIME STEP    1, STRESS PERIOD    1
1
  VOLUMETRIC BUDGET FOR ENTIRE MODEL AT END OF TIME STEP    1, STRESS PERIOD   1
  ------------------------------------------------------------------------------

     CUMULATIVE VOLUMES      L**3       RATES FOR THIS TIME STEP      L**3/T
     ------------------                 ------------------------

           IN:                                      IN:
           ---                                      ---
             STORAGE =           0.0000               STORAGE =           0.0000
       CONSTANT HEAD =           0.0000         CONSTANT HEAD =           0.0000
       RIVER LEAKAGE =     3089324.5000         RIVER LEAKAGE =        1371.6107
     HEAD DEP BOUNDS =      591163.7500       HEAD DEP BOUNDS =         262.4673
            RECHARGE =     2968834.2500              RECHARGE =        1318.1150

            TOTAL IN =     6649322.5000              TOTAL IN =        2952.1929

          OUT:                                     OUT:
          ----                                     ----
             STORAGE =           0.0000               STORAGE =           0.0000
       CONSTANT HEAD =           0.0000         CONSTANT HEAD =           0.0000
       RIVER LEAKAGE =     6664609.5000         RIVER LEAKAGE =        2958.9802
     HEAD DEP BOUNDS =           0.0000       HEAD DEP BOUNDS =           0.0000
            RECHARGE =           0.0000              RECHARGE =           0.0000

           TOTAL OUT =     6664609.5000             TOTAL OUT =        2958.9802

            IN - OUT =      -15287.0000              IN - OUT =          -6.7874

 PERCENT DISCREPANCY =          -0.23     PERCENT DISCREPANCY =          -0.23






         TIME SUMMARY AT END OF TIME STEP    1 IN STRESS PERIOD    1
                    SECONDS     MINUTES      HOURS       DAYS        YEARS
                    -----------------------------------------------------------
   TIME STEP LENGTH 1.94602E+08 3.24336E+06  54056.      2252.3      6.1666    
 STRESS PERIOD TIME 1.94602E+08 3.24336E+06  54056.      2252.3      6.1666    
         TOTAL TIME 1.94602E+08 3.24336E+06  54056.      2252.3      6.1666    
1
 
 SOLVING FOR HEAD 
          0                 1           1           146   79     1      -0.2266849783E-03      18   76    1        -0.1995437895E-02      0.5980055354E-01

    ------------------------------------------------
       NWT REQUIRED            1 OUTER ITERATIONS 
       AND A TOTAL OF          1 INNER ITERATIONS.
    ------------------------------------------------

 OUTPUT CONTROL FOR STRESS PERIOD    1   TIME STEP    2
    SAVE DRAWDOWN FOR ALL LAYERS
    SAVE BUDGET
    PRINT BUDGET
 UBDSV2 SAVING "   CONSTANT HEAD" ON UNIT   9 AT TIME STEP  2, STRESS PERIOD   1
 UBDSV1 SAVING "FLOW RIGHT FACE " ON UNIT   9 AT TIME STEP  2, STRESS PERIOD   1
 UBDSV1 SAVING "FLOW FRONT FACE " ON UNIT   9 AT TIME STEP  2, STRESS PERIOD   1
 UBDSV1 SAVING "FLOW LOWER FACE " ON UNIT   9 AT TIME STEP  2, STRESS PERIOD   1
 UBDSV4 SAVING "   RIVER LEAKAGE" ON UNIT   9 AT TIME STEP  2, STRESS PERIOD   1
 UBDSV4 SAVING " HEAD DEP BOUNDS" ON UNIT   9 AT TIME STEP  2, STRESS PERIOD   1
 UBDSV3 SAVING "        RECHARGE" ON UNIT   9 AT TIME STEP  2, STRESS PERIOD   1

 SAVING SATURATED THICKNESS AND FLOW TERMS ON UNIT  136 FOR MT3DMS
 BY THE LINK-MT3DMS PACKAGE V7 AT TIME STEP    2, STRESS PERIOD    1


 DRAWDOWN WILL BE SAVED ON UNIT   38 AT END OF TIME STEP    2, STRESS PERIOD    1
1
  VOLUMETRIC BUDGET FOR ENTIRE MODEL AT END OF TIME STEP    2, STRESS PERIOD   1
  ------------------------------------------------------------------------------

     CUMULATIVE VOLUMES      L**3       RATES FOR THIS TIME STEP      L**3/T
     ------------------                 ------------------------

           IN:                                      IN:
           ---                                      ---
             STORAGE =           0.0000               STORAGE =           0.0000
       CONSTANT HEAD =           0.0000         CONSTANT HEAD =           0.0000
       RIVER LEAKAGE =     6178673.0000         RIVER LEAKAGE =        1371.6213
     HEAD DEP BOUNDS =     1182337.7500       HEAD DEP BOUNDS =         262.4718
            RECHARGE =     5937668.5000              RECHARGE =        1318.1150

            TOTAL IN =    13298680.0000              TOTAL IN =        2952.2080

          OUT:                                     OUT:
          ----                                     ----
             STORAGE =           0.0000               STORAGE =           0.0000
       CONSTANT HEAD =           0.0000         CONSTANT HEAD =           0.0000
       RIVER LEAKAGE =    13329158.0000         RIVER LEAKAGE =        2958.9534
     HEAD DEP BOUNDS =           0.0000       HEAD DEP BOUNDS =           0.0000
            RECHARGE =           0.0000              RECHARGE =           0.0000

           TOTAL OUT =    13329158.0000             TOTAL OUT =        2958.9534

            IN - OUT =      -30478.0000              IN - OUT =          -6.7454

 PERCENT DISCREPANCY =          -0.23     PERCENT DISCREPANCY =          -0.23






         TIME SUMMARY AT END OF TIME STEP    2 IN STRESS PERIOD    1
                    SECONDS     MINUTES      HOURS       DAYS        YEARS
                    -----------------------------------------------------------
   TIME STEP LENGTH 1.94602E+08 3.24336E+06  54056.      2252.3      6.1666    
 STRESS PERIOD TIME 3.89203E+08 6.48672E+06 1.08112E+05  4504.7      12.333    
         TOTAL TIME 3.89203E+08 6.48672E+06 1.08112E+05  4504.7      12.333    
1
 
 SOLVING FOR HEAD 
          0                 1           1           146   79     1      -0.1215926500E-03      16   77    1        -0.1859801996E-02      0.5921718805E-01

    ------------------------------------------------
       NWT REQUIRED            1 OUTER ITERATIONS 
       AND A TOTAL OF          1 INNER ITERATIONS.
    ------------------------------------------------

 OUTPUT CONTROL FOR STRESS PERIOD    1   TIME STEP    3
    SAVE DRAWDOWN FOR ALL LAYERS
    SAVE BUDGET
    PRINT BUDGET
 UBDSV2 SAVING "   CONSTANT HEAD" ON UNIT   9 AT TIME STEP  3, STRESS PERIOD   1
 UBDSV1 SAVING "FLOW RIGHT FACE " ON UNIT   9 AT TIME STEP  3, STRESS PERIOD   1
 UBDSV1 SAVING "FLOW FRONT FACE " ON UNIT   9 AT TIME STEP  3, STRESS PERIOD   1
 UBDSV1 SAVING "FLOW LOWER FACE " ON UNIT   9 AT TIME STEP  3, STRESS PERIOD   1
 UBDSV4 SAVING "   RIVER LEAKAGE" ON UNIT   9 AT TIME STEP  3, STRESS PERIOD   1
 UBDSV4 SAVING " HEAD DEP BOUNDS" ON UNIT   9 AT TIME STEP  3, STRESS PERIOD   1
 UBDSV3 SAVING "        RECHARGE" ON UNIT   9 AT TIME STEP  3, STRESS PERIOD   1

 SAVING SATURATED THICKNESS AND FLOW TERMS ON UNIT  136 FOR MT3DMS
 BY THE LINK-MT3DMS PACKAGE V7 AT TIME STEP    3, STRESS PERIOD    1


 DRAWDOWN WILL BE SAVED ON UNIT   38 AT END OF TIME STEP    3, STRESS PERIOD    1
1
  VOLUMETRIC BUDGET FOR ENTIRE MODEL AT END OF TIME STEP    3, STRESS PERIOD   1
  ------------------------------------------------------------------------------

     CUMULATIVE VOLUMES      L**3       RATES FOR THIS TIME STEP      L**3/T
     ------------------                 ------------------------

           IN:                                      IN:
           ---                                      ---
             STORAGE =           0.0000               STORAGE =           0.0000
       CONSTANT HEAD =           0.0000         CONSTANT HEAD =           0.0000
       RIVER LEAKAGE =     9268035.0000         RIVER LEAKAGE =        1371.6274
     HEAD DEP BOUNDS =     1773517.7500       HEAD DEP BOUNDS =         262.4745
            RECHARGE =     8906503.0000              RECHARGE =        1318.1150

            TOTAL IN =    19948056.0000              TOTAL IN =        2952.2168

          OUT:                                     OUT:
          ----                                     ----
             STORAGE =           0.0000               STORAGE =           0.0000
       CONSTANT HEAD =           0.0000         CONSTANT HEAD =           0.0000
       RIVER LEAKAGE =    19993672.0000         RIVER LEAKAGE =        2958.9380
     HEAD DEP BOUNDS =           0.0000       HEAD DEP BOUNDS =           0.0000
            RECHARGE =           0.0000              RECHARGE =           0.0000

           TOTAL OUT =    19993672.0000             TOTAL OUT =        2958.9380

            IN - OUT =      -45616.0000              IN - OUT =          -6.7212

 PERCENT DISCREPANCY =          -0.23     PERCENT DISCREPANCY =          -0.23






         TIME SUMMARY AT END OF TIME STEP    3 IN STRESS PERIOD    1
                    SECONDS     MINUTES      HOURS       DAYS        YEARS
                    -----------------------------------------------------------
   TIME STEP LENGTH 1.94602E+08 3.24336E+06  54056.      2252.3      6.1666    
 STRESS PERIOD TIME 5.83805E+08 9.73008E+06 1.62168E+05  6757.0      18.500    
         TOTAL TIME 5.83805E+08 9.73008E+06 1.62168E+05  6757.0      18.500    
1
 
 SOLVING FOR HEAD 
          0                 1           1           146   79     1      -0.5132664664E-03      28   86    1        -0.1807102701E-02      0.5896017008E-01

    ------------------------------------------------
       NWT REQUIRED            1 OUTER ITERATIONS 
       AND A TOTAL OF          1 INNER ITERATIONS.
    ------------------------------------------------

 OUTPUT CONTROL FOR STRESS PERIOD    1   TIME STEP    4
    SAVE DRAWDOWN FOR ALL LAYERS
    SAVE BUDGET
    PRINT BUDGET
 UBDSV2 SAVING "   CONSTANT HEAD" ON UNIT   9 AT TIME STEP  4, STRESS PERIOD   1
 UBDSV1 SAVING "FLOW RIGHT FACE " ON UNIT   9 AT TIME STEP  4, STRESS PERIOD   1
 UBDSV1 SAVING "FLOW FRONT FACE " ON UNIT   9 AT TIME STEP  4, STRESS PERIOD   1
 UBDSV1 SAVING "FLOW LOWER FACE " ON UNIT   9 AT TIME STEP  4, STRESS PERIOD   1
 UBDSV4 SAVING "   RIVER LEAKAGE" ON UNIT   9 AT TIME STEP  4, STRESS PERIOD   1
 UBDSV4 SAVING " HEAD DEP BOUNDS" ON UNIT   9 AT TIME STEP  4, STRESS PERIOD   1
 UBDSV3 SAVING "        RECHARGE" ON UNIT   9 AT TIME STEP  4, STRESS PERIOD   1

 SAVING SATURATED THICKNESS AND FLOW TERMS ON UNIT  136 FOR MT3DMS
 BY THE LINK-MT3DMS PACKAGE V7 AT TIME STEP    4, STRESS PERIOD    1


 DRAWDOWN WILL BE SAVED ON UNIT   38 AT END OF TIME STEP    4, STRESS PERIOD    1
1
  VOLUMETRIC BUDGET FOR ENTIRE MODEL AT END OF TIME STEP    4, STRESS PERIOD   1
  ------------------------------------------------------------------------------

     CUMULATIVE VOLUMES      L**3       RATES FOR THIS TIME STEP      L**3/T
     ------------------                 ------------------------

           IN:                                      IN:
           ---                                      ---
             STORAGE =           0.0000               STORAGE =           0.0000
       CONSTANT HEAD =           0.0000         CONSTANT HEAD =           0.0000
       RIVER LEAKAGE =    12357453.0000         RIVER LEAKAGE =        1371.6523
     HEAD DEP BOUNDS =     2364722.2500       HEAD DEP BOUNDS =         262.4854
            RECHARGE =    11875337.0000              RECHARGE =        1318.1150

            TOTAL IN =    26597512.0000              TOTAL IN =        2952.2527

          OUT:                                     OUT:
          ----                                     ----
             STORAGE =           0.0000               STORAGE =           0.0000
       CONSTANT HEAD =           0.0000         CONSTANT HEAD =           0.0000
       RIVER LEAKAGE =    26658044.0000         RIVER LEAKAGE =        2958.8750
     HEAD DEP BOUNDS =           0.0000       HEAD DEP BOUNDS =           0.0000
            RECHARGE =           0.0000              RECHARGE =           0.0000

           TOTAL OUT =    26658044.0000             TOTAL OUT =        2958.8750

            IN - OUT =      -60532.0000              IN - OUT =          -6.6223

 PERCENT DISCREPANCY =          -0.23     PERCENT DISCREPANCY =          -0.22






         TIME SUMMARY AT END OF TIME STEP    4 IN STRESS PERIOD    1
                    SECONDS     MINUTES      HOURS       DAYS        YEARS
                    -----------------------------------------------------------
   TIME STEP LENGTH 1.94602E+08 3.24336E+06  54056.      2252.3      6.1666    
 STRESS PERIOD TIME 7.78406E+08 1.29734E+07 2.16224E+05  9009.3      24.666    
         TOTAL TIME 7.78406E+08 1.29734E+07 2.16224E+05  9009.3      24.666    
1
 
 SOLVING FOR HEAD 
          0                 1           1           146   79     1      -0.9850416200E-04      16   77    1        -0.3058506816E-02      0.5838751831E-01

    ------------------------------------------------
       NWT REQUIRED            1 OUTER ITERATIONS 
       AND A TOTAL OF          1 INNER ITERATIONS.
    ------------------------------------------------

 OUTPUT CONTROL FOR STRESS PERIOD    1   TIME STEP    5
    SAVE DRAWDOWN FOR ALL LAYERS
    SAVE BUDGET
    PRINT BUDGET
 UBDSV2 SAVING "   CONSTANT HEAD" ON UNIT   9 AT TIME STEP  5, STRESS PERIOD   1
 UBDSV1 SAVING "FLOW RIGHT FACE " ON UNIT   9 AT TIME STEP  5, STRESS PERIOD   1
 UBDSV1 SAVING "FLOW FRONT FACE " ON UNIT   9 AT TIME STEP  5, STRESS PERIOD   1
 UBDSV1 SAVING "FLOW LOWER FACE " ON UNIT   9 AT TIME STEP  5, STRESS PERIOD   1
 UBDSV4 SAVING "   RIVER LEAKAGE" ON UNIT   9 AT TIME STEP  5, STRESS PERIOD   1
 UBDSV4 SAVING " HEAD DEP BOUNDS" ON UNIT   9 AT TIME STEP  5, STRESS PERIOD   1
 UBDSV3 SAVING "        RECHARGE" ON UNIT   9 AT TIME STEP  5, STRESS PERIOD   1

 SAVING SATURATED THICKNESS AND FLOW TERMS ON UNIT  136 FOR MT3DMS
 BY THE LINK-MT3DMS PACKAGE V7 AT TIME STEP    5, STRESS PERIOD    1


 DRAWDOWN WILL BE SAVED ON UNIT   38 AT END OF TIME STEP    5, STRESS PERIOD    1
1
  VOLUMETRIC BUDGET FOR ENTIRE MODEL AT END OF TIME STEP    5, STRESS PERIOD   1
  ------------------------------------------------------------------------------

     CUMULATIVE VOLUMES      L**3       RATES FOR THIS TIME STEP      L**3/T
     ------------------                 ------------------------

           IN:                                      IN:
           ---                                      ---
             STORAGE =           0.0000               STORAGE =           0.0000
       CONSTANT HEAD =           0.0000         CONSTANT HEAD =           0.0000
       RIVER LEAKAGE =    15446882.0000         RIVER LEAKAGE =        1371.6573
     HEAD DEP BOUNDS =     2955931.5000       HEAD DEP BOUNDS =         262.4875
            RECHARGE =    14844171.0000              RECHARGE =        1318.1150

            TOTAL IN =    33246984.0000              TOTAL IN =        2952.2598

          OUT:                                     OUT:
          ----                                     ----
             STORAGE =           0.0000               STORAGE =           0.0000
       CONSTANT HEAD =           0.0000         CONSTANT HEAD =           0.0000
       RIVER LEAKAGE =    33322388.0000         RIVER LEAKAGE =        2958.8628
     HEAD DEP BOUNDS =           0.0000       HEAD DEP BOUNDS =           0.0000
            RECHARGE =           0.0000              RECHARGE =           0.0000

           TOTAL OUT =    33322388.0000             TOTAL OUT =        2958.8628

            IN - OUT =      -75404.0000              IN - OUT =          -6.6030

 PERCENT DISCREPANCY =          -0.23     PERCENT DISCREPANCY =          -0.22






         TIME SUMMARY AT END OF TIME STEP    5 IN STRESS PERIOD    1
                    SECONDS     MINUTES      HOURS       DAYS        YEARS
                    -----------------------------------------------------------
   TIME STEP LENGTH 1.94602E+08 3.24336E+06  54056.      2252.3      6.1666    
 STRESS PERIOD TIME 9.73008E+08 1.62168E+07 2.70280E+05  11262.      30.833    
         TOTAL TIME 9.73008E+08 1.62168E+07 2.70280E+05  11262.      30.833    
1
 
 SOLVING FOR HEAD 
          0                 1           1           146   79     1      -0.1035505138E-02      28   86    1        -0.1774502918E-02      0.5789550490E-01

    ------------------------------------------------
       NWT REQUIRED            1 OUTER ITERATIONS 
       AND A TOTAL OF          1 INNER ITERATIONS.
    ------------------------------------------------

 OUTPUT CONTROL FOR STRESS PERIOD    1   TIME STEP    6
 Drawdown Reference will be reset at the end of this time step
    SAVE HEAD FOR ALL LAYERS
    SAVE DRAWDOWN FOR ALL LAYERS
    SAVE BUDGET
    PRINT BUDGET
 UBDSV2 SAVING "   CONSTANT HEAD" ON UNIT   9 AT TIME STEP  6, STRESS PERIOD   1
 UBDSV1 SAVING "FLOW RIGHT FACE " ON UNIT   9 AT TIME STEP  6, STRESS PERIOD   1
 UBDSV1 SAVING "FLOW FRONT FACE " ON UNIT   9 AT TIME STEP  6, STRESS PERIOD   1
 UBDSV1 SAVING "FLOW LOWER FACE " ON UNIT   9 AT TIME STEP  6, STRESS PERIOD   1
 UBDSV4 SAVING "   RIVER LEAKAGE" ON UNIT   9 AT TIME STEP  6, STRESS PERIOD   1
 UBDSV4 SAVING " HEAD DEP BOUNDS" ON UNIT   9 AT TIME STEP  6, STRESS PERIOD   1
 UBDSV3 SAVING "        RECHARGE" ON UNIT   9 AT TIME STEP  6, STRESS PERIOD   1

 SAVING SATURATED THICKNESS AND FLOW TERMS ON UNIT  136 FOR MT3DMS
 BY THE LINK-MT3DMS PACKAGE V7 AT TIME STEP    6, STRESS PERIOD    1


 HEAD WILL BE SAVED ON UNIT   37 AT END OF TIME STEP    6, STRESS PERIOD    1

 DRAWDOWN WILL BE SAVED ON UNIT   38 AT END OF TIME STEP    6, STRESS PERIOD    1
1
  VOLUMETRIC BUDGET FOR ENTIRE MODEL AT END OF TIME STEP    6, STRESS PERIOD   1
  ------------------------------------------------------------------------------

     CUMULATIVE VOLUMES      L**3       RATES FOR THIS TIME STEP      L**3/T
     ------------------                 ------------------------

           IN:                                      IN:
           ---                                      ---
             STORAGE =           0.0000               STORAGE =           0.0000
       CONSTANT HEAD =           0.0000         CONSTANT HEAD =           0.0000
       RIVER LEAKAGE =    18536424.0000         RIVER LEAKAGE =        1371.7076
     HEAD DEP BOUNDS =     3547190.5000       HEAD DEP BOUNDS =         262.5095
            RECHARGE =    17813006.0000              RECHARGE =        1318.1150

            TOTAL IN =    39896620.0000              TOTAL IN =        2952.3320

          OUT:                                     OUT:
          ----                                     ----
             STORAGE =           0.0000               STORAGE =           0.0000
       CONSTANT HEAD =           0.0000         CONSTANT HEAD =           0.0000
       RIVER LEAKAGE =    39986444.0000         RIVER LEAKAGE =        2958.7351
     HEAD DEP BOUNDS =           0.0000       HEAD DEP BOUNDS =           0.0000
            RECHARGE =           0.0000              RECHARGE =           0.0000

           TOTAL OUT =    39986444.0000             TOTAL OUT =        2958.7351

            IN - OUT =      -89824.0000              IN - OUT =          -6.4031

 PERCENT DISCREPANCY =          -0.22     PERCENT DISCREPANCY =          -0.22



 Drawdown Reference has been reset to the end of this time step



         TIME SUMMARY AT END OF TIME STEP    6 IN STRESS PERIOD    1
                    SECONDS     MINUTES      HOURS       DAYS        YEARS
                    -----------------------------------------------------------
   TIME STEP LENGTH 1.94602E+08 3.24336E+06  54056.      2252.3      6.1666    
 STRESS PERIOD TIME 1.16761E+09 1.94602E+07 3.24336E+05  13514.      36.999    
         TOTAL TIME 1.16761E+09 1.94602E+07 3.24336E+05  13514.      36.999    
1
1
                            STRESS PERIOD NO.    2, LENGTH =   14751.00    
                            -----------------------------------------------

                              NUMBER OF TIME STEPS =     6

                               MULTIPLIER FOR DELT =     1.000

                            INITIAL TIME STEP SIZE =   2458.500    

 REUSING NON-PARAMETER RIVER REACHES FROM LAST STRESS PERIOD

    318 RIVER REACHES

 REUSING NON-PARAMETER GHB CELLS FROM LAST STRESS PERIOD

     12 GHB CELLS

 REUSING RECH FROM LAST STRESS PERIOD
 
 SOLVING FOR HEAD 
          0                 1           1           146   79     1      -0.9369038480E-04      18   76    1         0.4574880819E-02      0.5691825401E-01

    ------------------------------------------------
       NWT REQUIRED            1 OUTER ITERATIONS 
       AND A TOTAL OF          1 INNER ITERATIONS.
    ------------------------------------------------

 OUTPUT CONTROL FOR STRESS PERIOD    2   TIME STEP    1
    SAVE DRAWDOWN FOR ALL LAYERS
    SAVE BUDGET
    PRINT BUDGET
 UBDSV2 SAVING "   CONSTANT HEAD" ON UNIT   9 AT TIME STEP  1, STRESS PERIOD   2
 UBDSV1 SAVING "FLOW RIGHT FACE " ON UNIT   9 AT TIME STEP  1, STRESS PERIOD   2
 UBDSV1 SAVING "FLOW FRONT FACE " ON UNIT   9 AT TIME STEP  1, STRESS PERIOD   2
 UBDSV1 SAVING "FLOW LOWER FACE " ON UNIT   9 AT TIME STEP  1, STRESS PERIOD   2
 UBDSV4 SAVING "   RIVER LEAKAGE" ON UNIT   9 AT TIME STEP  1, STRESS PERIOD   2
 UBDSV4 SAVING " HEAD DEP BOUNDS" ON UNIT   9 AT TIME STEP  1, STRESS PERIOD   2
 UBDSV3 SAVING "        RECHARGE" ON UNIT   9 AT TIME STEP  1, STRESS PERIOD   2

 SAVING SATURATED THICKNESS AND FLOW TERMS ON UNIT  136 FOR MT3DMS
 BY THE LINK-MT3DMS PACKAGE V7 AT TIME STEP    1, STRESS PERIOD    2


 DRAWDOWN WILL BE SAVED ON UNIT   38 AT END OF TIME STEP    1, STRESS PERIOD    2
1
  VOLUMETRIC BUDGET FOR ENTIRE MODEL AT END OF TIME STEP    1, STRESS PERIOD   2
  ------------------------------------------------------------------------------

     CUMULATIVE VOLUMES      L**3       RATES FOR THIS TIME STEP      L**3/T
     ------------------                 ------------------------

           IN:                                      IN:
           ---                                      ---
             STORAGE =           0.0000               STORAGE =           0.0000
       CONSTANT HEAD =           0.0000         CONSTANT HEAD =           0.0000
       RIVER LEAKAGE =    21908778.0000         RIVER LEAKAGE =        1371.7123
     HEAD DEP BOUNDS =     4192575.0000       HEAD DEP BOUNDS =         262.5114
            RECHARGE =    21053592.0000              RECHARGE =        1318.1150

            TOTAL IN =    47154944.0000              TOTAL IN =        2952.3389

          OUT:                                     OUT:
          ----                                     ----
             STORAGE =           0.0000               STORAGE =           0.0000
       CONSTANT HEAD =           0.0000         CONSTANT HEAD =           0.0000
       RIVER LEAKAGE =    47260468.0000         RIVER LEAKAGE =        2958.7239
     HEAD DEP BOUNDS =           0.0000       HEAD DEP BOUNDS =           0.0000
            RECHARGE =           0.0000              RECHARGE =           0.0000

           TOTAL OUT =    47260468.0000             TOTAL OUT =        2958.7239

            IN - OUT =     -105524.0000              IN - OUT =          -6.3850

 PERCENT DISCREPANCY =          -0.22     PERCENT DISCREPANCY =          -0.22






         TIME SUMMARY AT END OF TIME STEP    1 IN STRESS PERIOD    2
                    SECONDS     MINUTES      HOURS       DAYS        YEARS
                    -----------------------------------------------------------
   TIME STEP LENGTH 2.12414E+08 3.54024E+06  59004.      2458.5      6.7310    
 STRESS PERIOD TIME 2.12414E+08 3.54024E+06  59004.      2458.5      6.7310    
         TOTAL TIME 1.38002E+09 2.30004E+07 3.83340E+05  15972.      43.730    
1
 
 SOLVING FOR HEAD 
                                                   Max.-Head-Change                         Max.-Flux-Residual
  Residual-Control   Outer-Iter.   Inner-Iter.     Column Row Layer    Maximum-Head-Change  Column Row Layer    Maximum-Flux-Residual          L2-NORM 
          0                 1           3           146   79     1      -0.3304049995E-01      28   86    1        -0.1702287933E-02      0.5598398688E-01
          0                 2           1           146   79     1      -0.1256212706E-02      60   23    1         0.2329977928E-02      0.5445341422E-02

    ------------------------------------------------
       NWT REQUIRED            2 OUTER ITERATIONS 
       AND A TOTAL OF          4 INNER ITERATIONS.
    ------------------------------------------------

 OUTPUT CONTROL FOR STRESS PERIOD    2   TIME STEP    2
    SAVE DRAWDOWN FOR ALL LAYERS
    SAVE BUDGET
    PRINT BUDGET
 UBDSV2 SAVING "   CONSTANT HEAD" ON UNIT   9 AT TIME STEP  2, STRESS PERIOD   2
 UBDSV1 SAVING "FLOW RIGHT FACE " ON UNIT   9 AT TIME STEP  2, STRESS PERIOD   2
 UBDSV1 SAVING "FLOW FRONT FACE " ON UNIT   9 AT TIME STEP  2, STRESS PERIOD   2
 UBDSV1 SAVING "FLOW LOWER FACE " ON UNIT   9 AT TIME STEP  2, STRESS PERIOD   2
 UBDSV4 SAVING "   RIVER LEAKAGE" ON UNIT   9 AT TIME STEP  2, STRESS PERIOD   2
 UBDSV4 SAVING " HEAD DEP BOUNDS" ON UNIT   9 AT TIME STEP  2, STRESS PERIOD   2
 UBDSV3 SAVING "        RECHARGE" ON UNIT   9 AT TIME STEP  2, STRESS PERIOD   2

 SAVING SATURATED THICKNESS AND FLOW TERMS ON UNIT  136 FOR MT3DMS
 BY THE LINK-MT3DMS PACKAGE V7 AT TIME STEP    2, STRESS PERIOD    2


 DRAWDOWN WILL BE SAVED ON UNIT   38 AT END OF TIME STEP    2, STRESS PERIOD    2
1
  VOLUMETRIC BUDGET FOR ENTIRE MODEL AT END OF TIME STEP    2, STRESS PERIOD   2
  ------------------------------------------------------------------------------

     CUMULATIVE VOLUMES      L**3       RATES FOR THIS TIME STEP      L**3/T
     ------------------                 ------------------------

           IN:                                      IN:
           ---                                      ---
             STORAGE =           0.0000               STORAGE =           0.0000
       CONSTANT HEAD =           0.0000         CONSTANT HEAD =           0.0000
       RIVER LEAKAGE =    25285156.0000         RIVER LEAKAGE =        1373.3486
     HEAD DEP BOUNDS =     4839690.0000       HEAD DEP BOUNDS =         263.2154
            RECHARGE =    24294178.0000              RECHARGE =        1318.1150

            TOTAL IN =    54419024.0000              TOTAL IN =        2954.6790

          OUT:                                     OUT:
          ----                                     ----
             STORAGE =           0.0000               STORAGE =           0.0000
       CONSTANT HEAD =           0.0000         CONSTANT HEAD =           0.0000
       RIVER LEAKAGE =    54524572.0000         RIVER LEAKAGE =        2954.6892
     HEAD DEP BOUNDS =           0.0000       HEAD DEP BOUNDS =           0.0000
            RECHARGE =           0.0000              RECHARGE =           0.0000

           TOTAL OUT =    54524572.0000             TOTAL OUT =        2954.6892

            IN - OUT =     -105548.0000              IN - OUT =      -1.0254E-02

 PERCENT DISCREPANCY =          -0.19     PERCENT DISCREPANCY =          -0.00






         TIME SUMMARY AT END OF TIME STEP    2 IN STRESS PERIOD    2
                    SECONDS     MINUTES      HOURS       DAYS        YEARS
                    -----------------------------------------------------------
   TIME STEP LENGTH 2.12414E+08 3.54024E+06  59004.      2458.5      6.7310    
 STRESS PERIOD TIME 4.24829E+08 7.08048E+06 1.18008E+05  4917.0      13.462    
         TOTAL TIME 1.59244E+09 2.65406E+07 4.42344E+05  18431.      50.461    
1
 
 SOLVING FOR HEAD 
          0                 1           1            95   85     1       0.1088284671E-03      30   80    1         0.7680803537E-04      0.1484320113E-02

    ------------------------------------------------
       NWT REQUIRED            1 OUTER ITERATIONS 
       AND A TOTAL OF          1 INNER ITERATIONS.
    ------------------------------------------------

 OUTPUT CONTROL FOR STRESS PERIOD    2   TIME STEP    3
    SAVE DRAWDOWN FOR ALL LAYERS
    SAVE BUDGET
    PRINT BUDGET
 UBDSV2 SAVING "   CONSTANT HEAD" ON UNIT   9 AT TIME STEP  3, STRESS PERIOD   2
 UBDSV1 SAVING "FLOW RIGHT FACE " ON UNIT   9 AT TIME STEP  3, STRESS PERIOD   2
 UBDSV1 SAVING "FLOW FRONT FACE " ON UNIT   9 AT TIME STEP  3, STRESS PERIOD   2
 UBDSV1 SAVING "FLOW LOWER FACE " ON UNIT   9 AT TIME STEP  3, STRESS PERIOD   2
 UBDSV4 SAVING "   RIVER LEAKAGE" ON UNIT   9 AT TIME STEP  3, STRESS PERIOD   2
 UBDSV4 SAVING " HEAD DEP BOUNDS" ON UNIT   9 AT TIME STEP  3, STRESS PERIOD   2
 UBDSV3 SAVING "        RECHARGE" ON UNIT   9 AT TIME STEP  3, STRESS PERIOD   2

 SAVING SATURATED THICKNESS AND FLOW TERMS ON UNIT  136 FOR MT3DMS
 BY THE LINK-MT3DMS PACKAGE V7 AT TIME STEP    3, STRESS PERIOD    2


 DRAWDOWN WILL BE SAVED ON UNIT   38 AT END OF TIME STEP    3, STRESS PERIOD    2
1
  VOLUMETRIC BUDGET FOR ENTIRE MODEL AT END OF TIME STEP    3, STRESS PERIOD   2
  ------------------------------------------------------------------------------

     CUMULATIVE VOLUMES      L**3       RATES FOR THIS TIME STEP      L**3/T
     ------------------                 ------------------------

           IN:                                      IN:
           ---                                      ---
             STORAGE =           0.0000               STORAGE =           0.0000
       CONSTANT HEAD =           0.0000         CONSTANT HEAD =           0.0000
       RIVER LEAKAGE =    28661532.0000         RIVER LEAKAGE =        1373.3484
     HEAD DEP BOUNDS =     5486805.5000       HEAD DEP BOUNDS =         263.2155
            RECHARGE =    27534764.0000              RECHARGE =        1318.1150

            TOTAL IN =    61683100.0000              TOTAL IN =        2954.6790

          OUT:                                     OUT:
          ----                                     ----
             STORAGE =           0.0000               STORAGE =           0.0000
       CONSTANT HEAD =           0.0000         CONSTANT HEAD =           0.0000
       RIVER LEAKAGE =    61788676.0000         RIVER LEAKAGE =        2954.6897
     HEAD DEP BOUNDS =           0.0000       HEAD DEP BOUNDS =           0.0000
            RECHARGE =           0.0000              RECHARGE =           0.0000

           TOTAL OUT =    61788676.0000             TOTAL OUT =        2954.6897

            IN - OUT =     -105576.0000              IN - OUT =      -1.0742E-02

 PERCENT DISCREPANCY =          -0.17     PERCENT DISCREPANCY =          -0.00






         TIME SUMMARY AT END OF TIME STEP    3 IN STRESS PERIOD    2
                    SECONDS     MINUTES      HOURS       DAYS        YEARS
                    -----------------------------------------------------------
   TIME STEP LENGTH 2.12414E+08 3.54024E+06  59004.      2458.5      6.7310    
 STRESS PERIOD TIME 6.37243E+08 1.06207E+07 1.77012E+05  7375.5      20.193    
         TOTAL TIME 1.80485E+09 3.00809E+07 5.01348E+05  20889.      57.192    
1
 
 SOLVING FOR HEAD 
          0                 1           1            95   85     1      -0.7326227660E-04      59   23    1        -0.6947503425E-04      0.1265897110E-02

    ------------------------------------------------
       NWT REQUIRED            1 OUTER ITERATIONS 
       AND A TOTAL OF          1 INNER ITERATIONS.
    ------------------------------------------------

 OUTPUT CONTROL FOR STRESS PERIOD    2   TIME STEP    4
    SAVE DRAWDOWN FOR ALL LAYERS
    SAVE BUDGET
    PRINT BUDGET
 UBDSV2 SAVING "   CONSTANT HEAD" ON UNIT   9 AT TIME STEP  4, STRESS PERIOD   2
 UBDSV1 SAVING "FLOW RIGHT FACE " ON UNIT   9 AT TIME STEP  4, STRESS PERIOD   2
 UBDSV1 SAVING "FLOW FRONT FACE " ON UNIT   9 AT TIME STEP  4, STRESS PERIOD   2
 UBDSV1 SAVING "FLOW LOWER FACE " ON UNIT   9 AT TIME STEP  4, STRESS PERIOD   2
 UBDSV4 SAVING "   RIVER LEAKAGE" ON UNIT   9 AT TIME STEP  4, STRESS PERIOD   2
 UBDSV4 SAVING " HEAD DEP BOUNDS" ON UNIT   9 AT TIME STEP  4, STRESS PERIOD   2
 UBDSV3 SAVING "        RECHARGE" ON UNIT   9 AT TIME STEP  4, STRESS PERIOD   2

 SAVING SATURATED THICKNESS AND FLOW TERMS ON UNIT  136 FOR MT3DMS
 BY THE LINK-MT3DMS PACKAGE V7 AT TIME STEP    4, STRESS PERIOD    2


 DRAWDOWN WILL BE SAVED ON UNIT   38 AT END OF TIME STEP    4, STRESS PERIOD    2
1
  VOLUMETRIC BUDGET FOR ENTIRE MODEL AT END OF TIME STEP    4, STRESS PERIOD   2
  ------------------------------------------------------------------------------

     CUMULATIVE VOLUMES      L**3       RATES FOR THIS TIME STEP      L**3/T
     ------------------                 ------------------------

           IN:                                      IN:
           ---                                      ---
             STORAGE =           0.0000               STORAGE =           0.0000
       CONSTANT HEAD =           0.0000         CONSTANT HEAD =           0.0000
       RIVER LEAKAGE =    32037908.0000         RIVER LEAKAGE =        1373.3481
     HEAD DEP BOUNDS =     6133921.0000       HEAD DEP BOUNDS =         263.2156
            RECHARGE =    30775350.0000              RECHARGE =        1318.1150

            TOTAL IN =    68947176.0000              TOTAL IN =        2954.6787

          OUT:                                     OUT:
          ----                                     ----
             STORAGE =           0.0000               STORAGE =           0.0000
       CONSTANT HEAD =           0.0000         CONSTANT HEAD =           0.0000
       RIVER LEAKAGE =    69052784.0000         RIVER LEAKAGE =        2954.6897
     HEAD DEP BOUNDS =           0.0000       HEAD DEP BOUNDS =           0.0000
            RECHARGE =           0.0000              RECHARGE =           0.0000

           TOTAL OUT =    69052784.0000             TOTAL OUT =        2954.6897

            IN - OUT =     -105608.0000              IN - OUT =      -1.0986E-02

 PERCENT DISCREPANCY =          -0.15     PERCENT DISCREPANCY =          -0.00






         TIME SUMMARY AT END OF TIME STEP    4 IN STRESS PERIOD    2
                    SECONDS     MINUTES      HOURS       DAYS        YEARS
                    -----------------------------------------------------------
   TIME STEP LENGTH 2.12414E+08 3.54024E+06  59004.      2458.5      6.7310    
 STRESS PERIOD TIME 8.49658E+08 1.41610E+07 2.36016E+05  9834.0      26.924    
         TOTAL TIME 2.01727E+09 3.36211E+07 5.60352E+05  23348.      63.923    
1
 
 SOLVING FOR HEAD 
          0                 1           1            95   85     1       0.4759552667E-04      28   86    1         0.5615875125E-04      0.1205418816E-02

    ------------------------------------------------
       NWT REQUIRED            1 OUTER ITERATIONS 
       AND A TOTAL OF          1 INNER ITERATIONS.
    ------------------------------------------------

 OUTPUT CONTROL FOR STRESS PERIOD    2   TIME STEP    5
    SAVE DRAWDOWN FOR ALL LAYERS
    SAVE BUDGET
    PRINT BUDGET
 UBDSV2 SAVING "   CONSTANT HEAD" ON UNIT   9 AT TIME STEP  5, STRESS PERIOD   2
 UBDSV1 SAVING "FLOW RIGHT FACE " ON UNIT   9 AT TIME STEP  5, STRESS PERIOD   2
 UBDSV1 SAVING "FLOW FRONT FACE " ON UNIT   9 AT TIME STEP  5, STRESS PERIOD   2
 UBDSV1 SAVING "FLOW LOWER FACE " ON UNIT   9 AT TIME STEP  5, STRESS PERIOD   2
 UBDSV4 SAVING "   RIVER LEAKAGE" ON UNIT   9 AT TIME STEP  5, STRESS PERIOD   2
 UBDSV4 SAVING " HEAD DEP BOUNDS" ON UNIT   9 AT TIME STEP  5, STRESS PERIOD   2
 UBDSV3 SAVING "        RECHARGE" ON UNIT   9 AT TIME STEP  5, STRESS PERIOD   2

 SAVING SATURATED THICKNESS AND FLOW TERMS ON UNIT  136 FOR MT3DMS
 BY THE LINK-MT3DMS PACKAGE V7 AT TIME STEP    5, STRESS PERIOD    2


 DRAWDOWN WILL BE SAVED ON UNIT   38 AT END OF TIME STEP    5, STRESS PERIOD    2
1
  VOLUMETRIC BUDGET FOR ENTIRE MODEL AT END OF TIME STEP    5, STRESS PERIOD   2
  ------------------------------------------------------------------------------

     CUMULATIVE VOLUMES      L**3       RATES FOR THIS TIME STEP      L**3/T
     ------------------                 ------------------------

           IN:                                      IN:
           ---                                      ---
             STORAGE =           0.0000               STORAGE =           0.0000
       CONSTANT HEAD =           0.0000         CONSTANT HEAD =           0.0000
       RIVER LEAKAGE =    35414284.0000         RIVER LEAKAGE =        1373.3480
     HEAD DEP BOUNDS =     6781037.0000       HEAD DEP BOUNDS =         263.2157
            RECHARGE =    34015936.0000              RECHARGE =        1318.1150

            TOTAL IN =    76211256.0000              TOTAL IN =        2954.6787

          OUT:                                     OUT:
          ----                                     ----
             STORAGE =           0.0000               STORAGE =           0.0000
       CONSTANT HEAD =           0.0000         CONSTANT HEAD =           0.0000
       RIVER LEAKAGE =    76316888.0000         RIVER LEAKAGE =        2954.6899
     HEAD DEP BOUNDS =           0.0000       HEAD DEP BOUNDS =           0.0000
            RECHARGE =           0.0000              RECHARGE =           0.0000

           TOTAL OUT =    76316888.0000             TOTAL OUT =        2954.6899

            IN - OUT =     -105632.0000              IN - OUT =      -1.1230E-02

 PERCENT DISCREPANCY =          -0.14     PERCENT DISCREPANCY =          -0.00






         TIME SUMMARY AT END OF TIME STEP    5 IN STRESS PERIOD    2
                    SECONDS     MINUTES      HOURS       DAYS        YEARS
                    -----------------------------------------------------------
   TIME STEP LENGTH 2.12414E+08 3.54024E+06  59004.      2458.5      6.7310    
 STRESS PERIOD TIME 1.06207E+09 1.77012E+07 2.95020E+05  12292.      33.655    
         TOTAL TIME 2.22968E+09 3.71614E+07 6.19356E+05  25806.      70.654    
1
 
 SOLVING FOR HEAD 
          0                 1           1            95   85     1      -0.3219708788E-04      25   86    1         0.5768961273E-04      0.1166004594E-02

    ------------------------------------------------
       NWT REQUIRED            1 OUTER ITERATIONS 
       AND A TOTAL OF          1 INNER ITERATIONS.
    ------------------------------------------------

 OUTPUT CONTROL FOR STRESS PERIOD    2   TIME STEP    6
    SAVE HEAD FOR ALL LAYERS
    SAVE DRAWDOWN FOR ALL LAYERS
    SAVE BUDGET
    PRINT BUDGET
 UBDSV2 SAVING "   CONSTANT HEAD" ON UNIT   9 AT TIME STEP  6, STRESS PERIOD   2
 UBDSV1 SAVING "FLOW RIGHT FACE " ON UNIT   9 AT TIME STEP  6, STRESS PERIOD   2
 UBDSV1 SAVING "FLOW FRONT FACE " ON UNIT   9 AT TIME STEP  6, STRESS PERIOD   2
 UBDSV1 SAVING "FLOW LOWER FACE " ON UNIT   9 AT TIME STEP  6, STRESS PERIOD   2
 UBDSV4 SAVING "   RIVER LEAKAGE" ON UNIT   9 AT TIME STEP  6, STRESS PERIOD   2
 UBDSV4 SAVING " HEAD DEP BOUNDS" ON UNIT   9 AT TIME STEP  6, STRESS PERIOD   2
 UBDSV3 SAVING "        RECHARGE" ON UNIT   9 AT TIME STEP  6, STRESS PERIOD   2

 SAVING SATURATED THICKNESS AND FLOW TERMS ON UNIT  136 FOR MT3DMS
 BY THE LINK-MT3DMS PACKAGE V7 AT TIME STEP    6, STRESS PERIOD    2


 HEAD WILL BE SAVED ON UNIT   37 AT END OF TIME STEP    6, STRESS PERIOD    2

 DRAWDOWN WILL BE SAVED ON UNIT   38 AT END OF TIME STEP    6, STRESS PERIOD    2
1
  VOLUMETRIC BUDGET FOR ENTIRE MODEL AT END OF TIME STEP    6, STRESS PERIOD   2
  ------------------------------------------------------------------------------

     CUMULATIVE VOLUMES      L**3       RATES FOR THIS TIME STEP      L**3/T
     ------------------                 ------------------------

           IN:                                      IN:
           ---                                      ---
             STORAGE =           0.0000               STORAGE =           0.0000
       CONSTANT HEAD =           0.0000         CONSTANT HEAD =           0.0000
       RIVER LEAKAGE =    38790660.0000         RIVER LEAKAGE =        1373.3479
     HEAD DEP BOUNDS =     7428153.0000       HEAD DEP BOUNDS =         263.2158
            RECHARGE =    37256520.0000              RECHARGE =        1318.1150

            TOTAL IN =    83475328.0000              TOTAL IN =        2954.6787

          OUT:                                     OUT:
          ----                                     ----
             STORAGE =           0.0000               STORAGE =           0.0000
       CONSTANT HEAD =           0.0000         CONSTANT HEAD =           0.0000
       RIVER LEAKAGE =    83580992.0000         RIVER LEAKAGE =        2954.6899
     HEAD DEP BOUNDS =           0.0000       HEAD DEP BOUNDS =           0.0000
            RECHARGE =           0.0000              RECHARGE =           0.0000

           TOTAL OUT =    83580992.0000             TOTAL OUT =        2954.6899

            IN - OUT =     -105664.0000              IN - OUT =      -1.1230E-02

 PERCENT DISCREPANCY =          -0.13     PERCENT DISCREPANCY =          -0.00






         TIME SUMMARY AT END OF TIME STEP    6 IN STRESS PERIOD    2
                    SECONDS     MINUTES      HOURS       DAYS        YEARS
                    -----------------------------------------------------------
   TIME STEP LENGTH 2.12414E+08 3.54024E+06  59004.      2458.5      6.7310    
 STRESS PERIOD TIME 1.27449E+09 2.12414E+07 3.54024E+05  14751.      40.386    
         TOTAL TIME 2.44210E+09 4.07016E+07 6.78360E+05  28265.      77.385    
1
1
                            STRESS PERIOD NO.    3, LENGTH =   7529.000    
                            -----------------------------------------------

                              NUMBER OF TIME STEPS =     6

                               MULTIPLIER FOR DELT =     1.000

                            INITIAL TIME STEP SIZE =   1254.833    

 REUSING NON-PARAMETER RIVER REACHES FROM LAST STRESS PERIOD

    318 RIVER REACHES

 REUSING NON-PARAMETER GHB CELLS FROM LAST STRESS PERIOD

     12 GHB CELLS



                           RECHARGE
 READING ON UNIT   24 WITH FORMAT: (FREE)              

            1           2           3           4           5           6           7           8           9          10
           11          12          13          14          15          16          17          18          19          20
           21          22          23          24          25          26          27          28          29          30
           31          32          33          34          35          36          37          38          39          40
           41          42          43          44          45          46          47          48          49          50
           51          52          53          54          55          56          57          58          59          60
           61          62          63          64          65          66          67          68          69          70
           71          72          73          74          75          76          77          78          79          80
           81          82          83          84          85          86          87          88          89          90
           91          92          93          94          95          96          97          98          99         100
          101         102         103         104         105         106         107         108         109         110
          111         112         113         114         115         116         117         118         119         120
          121         122         123         124         125         126         127         128         129         130
          131         132         133         134         135         136         137         138         139         140
          141         142         143         144         145         146         147         148         149         150
          151         152         153         154         155         156         157         158         159         160
          161         162         163         164         165         166         167         168         169         170
          171         172         173         174         175         176         177         178         179         180
          181         182         183         184         185         186
 ........................................................................................................................
   1   4.1096E-04  4.1096E-04  4.1096E-04  4.1096E-04  4.1096E-04  4.1096E-04  4.1096E-04  4.1096E-04  4.1096E-04  4.1096E-04
       4.1096E-04  4.1096E-04  4.1096E-04  4.1096E-04  4.1096E-04  4.1096E-04  4.1096E-04  4.1096E-04  4.1096E-04  4.1096E-04
       4.1096E-04  4.1096E-04  4.1096E-04  4.1096E-04  4.1096E-04  4.1096E-04  4.1096E-04  4.1096E-04  4.1096E-04  4.1096E-04
       4.1096E-04  4.1096E-04  4.1096E-04  4.1096E-04  4.1096E-04  4.1096E-04  4.1096E-04  4.1096E-04  4.1096E-04  4.1096E-04
       4.1096E-04  4.1096E-04  4.1096E-04  4.1096E-04  4.1096E-04  4.1096E-04  4.1096E-04  4.1096E-04  4.1096E-04  4.1096E-04
       4.1096E-04  4.1096E-04  4.1096E-04  4.1096E-04  4.1096E-04  4.1096E-04  4.1096E-04  4.1096E-04  4.1096E-04  4.1096E-04
       4.1096E-04  4.1096E-04  4.1096E-04  4.1096E-04  4.1096E-04  4.1096E-04  4.1096E-04  4.1096E-04  4.1096E-04  4.1096E-04
       4.1096E-04  4.1096E-04  4.1096E-04  4.1096E-04  4.1096E-04  4.1096E-04  4.1096E-04  4.1096E-04  4.1096E-04  4.1096E-04
       4.1096E-04  4.1096E-04  4.1096E-04  4.1096E-04  4.1096E-04  4.1096E-04  4.1096E-04  4.1096E-04  4.1096E-04  4.1096E-04
       4.1096E-04  4.1096E-04  4.1096E-04  4.1096E-04  4.1096E-04  4.1096E-04  4.1096E-04  4.1096E-04  4.1096E-04  4.1096E-04
       4.1096E-04  4.1096E-04  4.1096E-04  4.1096E-04  4.1096E-04  4.1096E-04  4.1096E-04  4.1096E-04  4.1096E-04  4.1096E-04
       4.1096E-04  4.1096E-04  4.1096E-04  4.1096E-04  4.1096E-04  4.1096E-04  4.1096E-04  4.1096E-04  4.1096E-04  4.1096E-04
       4.1096E-04  4.1096E-04  4.1096E-04  4.1096E-04  4.1096E-04  4.1096E-04  4.1096E-04  4.1096E-04  4.1096E-04  4.1096E-04
       4.1096E-04  4.1096E-04  4.1096E-04  4.1096E-04  4.1096E-04  4.1096E-04  4.1096E-04  4.1096E-04  4.1096E-04  4.1096E-04
       4.1096E-04  4.1096E-04  4.1096E-04  4.1096E-04  4.1096E-04  4.1096E-04  4.1096E-04  4.1096E-04  4.1096E-04  4.1096E-04
       4.1096E-04  4.1096E-04  4.1096E-04  4.1096E-04  4.1096E-04  4.1096E-04  4.1096E-04  4.1096E-04  4.1096E-04  4.1096E-04
       4.1096E-04  4.1096E-04  4.1096E-04  4.1096E-04  4.1096E-04  4.1096E-04  4.1096E-04  4.1096E-04  4.1096E-04  4.1096E-04
       4.1096E-04  4.1096E-04  4.1096E-04  4.1096E-04  4.1096E-04  4.1096E-04  4.1096E-04  4.1096E-04  4.1096E-04  4.1096E-04
       4.1096E-04  4.1096E-04  4.1096E-04  4.1096E-04  4.1096E-04  4.1096E-04
   2   4.1096E-04  4.1096E-04  4.1096E-04  4.1096E-04  4.1096E-04  4.1096E-04  4.1096E-04  4.1096E-04  4.1096E-04  4.1096E-04
       4.1096E-04  4.1096E-04  4.1096E-04  4.1096E-04  4.1096E-04  4.1096E-04  4.1096E-04  4.1096E-04  4.1096E-04  4.1096E-04
       4.1096E-04  4.1096E-04  4.1096E-04  4.1096E-04  4.1096E-04  4.1096E-04  4.1096E-04  4.1096E-04  4.1096E-04  4.1096E-04
       4.1096E-04  4.1096E-04  4.1096E-04  4.1096E-04  4.1096E-04  4.1096E-04  4.1096E-04  4.1096E-04  4.1096E-04  4.1096E-04
       4.1096E-04  4.1096E-04  4.1096E-04  4.1096E-04  4.1096E-04  4.1096E-04  4.1096E-04  4.1096E-04  4.1096E-04  4.1096E-04
       4.1096E-04  4.1096E-04  4.1096E-04  4.1096E-04  4.1096E-04  4.1096E-04  4.1096E-04  4.1096E-04  4.1096E-04  4.1096E-04
       4.1096E-04  4.1096E-04  4.1096E-04  4.1096E-04  4.1096E-04  4.1096E-04  4.1096E-04  4.1096E-04  4.1096E-04  4.1096E-04
       4.1096E-04  4.1096E-04  4.1096E-04  4.1096E-04  4.1096E-04  4.1096E-04  4.1096E-04  4.1096E-04  4.1096E-04  4.1096E-04
       4.1096E-04  4.1096E-04  4.1096E-04  4.1096E-04  4.1096E-04  4.1096E-04  4.1096E-04  4.1096E-04  4.1096E-04  4.1096E-04
       4.1096E-04  4.1096E-04  4.1096E-04  4.1096E-04  4.1096E-04  4.1096E-04  4.1096E-04  4.1096E-04  4.1096E-04  4.1096E-04
       4.1096E-04  4.1096E-04  4.1096E-04  4.1096E-04  4.1096E-04  4.1096E-04  4.1096E-04  4.1096E-04  4.1096E-04  4.1096E-04
       4.1096E-04  4.1096E-04  4.1096E-04  4.1096E-04  4.1096E-04  4.1096E-04  4.1096E-04  4.1096E-04  4.1096E-04  4.1096E-04
       4.1096E-04  4.1096E-04  4.1096E-04  4.1096E-04  4.1096E-04  4.1096E-04  4.1096E-04  4.1096E-04  4.1096E-04  4.1096E-04
       4.1096E-04  4.1096E-04  4.1096E-04  4.1096E-04  4.1096E-04  4.1096E-04  4.1096E-04  4.1096E-04  4.1096E-04  4.1096E-04
       4.1096E-04  4.1096E-04  4.1096E-04  4.1096E-04  4.1096E-04  4.1096E-04  4.1096E-04  4.1096E-04  4.1096E-04  4.1096E-04
       4.1096E-04  4.1096E-04  4.1096E-04  4.1096E-04  4.1096E-04  4.1096E-04  4.1096E-04  4.1096E-04  4.1096E-04  4.1096E-04
       4.1096E-04  4.1096E-04  4.1096E-04  4.1096E-04  4.1096E-04  4.1096E-04  4.1096E-04  4.1096E-04  4.1096E-04  4.1096E-04
       4.1096E-04  4.1096E-04  4.1096E-04  4.1096E-04  4.1096E-04  4.1096E-04  4.1096E-04  4.1096E-04  4.1096E-04  4.1096E-04
       4.1096E-04  4.1096E-04  4.1096E-04  4.1096E-04  4.1096E-04  4.1096E-04
   3   4.1096E-04  4.1096E-04  4.1096E-04  4.1096E-04  4.1096E-04  4.1096E-04  4.1096E-04  4.1096E-04  4.1096E-04  4.1096E-04
       4.1096E-04  4.1096E-04  4.1096E-04  4.1096E-04  4.1096E-04  4.1096E-04  4.1096E-04  4.1096E-04  4.1096E-04  4.1096E-04
       4.1096E-04  4.1096E-04  4.1096E-04  4.1096E-04  4.1096E-04  4.1096E-04  4.1096E-04  4.1096E-04  4.1096E-04  4.1096E-04
       4.1096E-04  4.1096E-04  4.1096E-04  4.1096E-04  4.1096E-04  4.1096E-04  4.1096E-04  4.1096E-04  4.1096E-04  4.1096E-04
       4.1096E-04  4.1096E-04  4.1096E-04  4.1096E-04  4.1096E-04  4.1096E-04  4.1096E-04  4.1096E-04  4.1096E-04  4.1096E-04
       4.1096E-04  4.1096E-04  4.1096E-04  4.1096E-04  4.1096E-04  4.1096E-04  4.1096E-04  4.1096E-04  4.1096E-04  4.1096E-04
       4.1096E-04  4.1096E-04  4.1096E-04  4.1096E-04  4.1096E-04  4.1096E-04  4.1096E-04  4.1096E-04  4.1096E-04  4.1096E-04
       4.1096E-04  4.1096E-04  4.1096E-04  4.1096E-04  4.1096E-04  4.1096E-04  4.1096E-04  4.1096E-04  4.1096E-04  4.1096E-04
       4.1096E-04  4.1096E-04  4.1096E-04  4.1096E-04  4.1096E-04  4.1096E-04  4.1096E-04  4.1096E-04  4.1096E-04  4.1096E-04
       4.1096E-04  4.1096E-04  4.1096E-04  4.1096E-04  4.1096E-04  4.1096E-04  4.1096E-04  4.1096E-04  4.1096E-04  4.1096E-04
       4.1096E-04  4.1096E-04  4.1096E-04  4.1096E-04  4.1096E-04  4.1096E-04  4.1096E-04  4.1096E-04  4.1096E-04  4.1096E-04
       4.1096E-04  4.1096E-04  4.1096E-04  4.1096E-04  4.1096E-04  4.1096E-04  4.1096E-04  4.1096E-04  4.1096E-04  4.1096E-04
       4.1096E-04  4.1096E-04  4.1096E-04  4.1096E-04  4.1096E-04  4.1096E-04  4.1096E-04  4.1096E-04  4.1096E-04  4.1096E-04
       4.1096E-04  4.1096E-04  4.1096E-04  4.1096E-04  4.1096E-04  4.1096E-04  4.1096E-04  4.1096E-04  4.1096E-04  4.1096E-04
       4.1096E-04  4.1096E-04  4.1096E-04  4.1096E-04  4.1096E-04  4.1096E-04  4.1096E-04  4.1096E-04  4.1096E-04  4.1096E-04
       4.1096E-04  4.1096E-04  4.1096E-04  4.1096E-04  4.1096E-04  4.1096E-04  4.1096E-04  4.1096E-04  4.1096E-04  4.1096E-04
       4.1096E-04  4.1096E-04  4.1096E-04  4.1096E-04  4.1096E-04  4.1096E-04  4.1096E-04  4.1096E-04  4.1096E-04  4.1096E-04
       4.1096E-04  4.1096E-04  4.1096E-04  4.1096E-04  4.1096E-04  4.1096E-04  4.1096E-04  4.1096E-04  4.1096E-04  4.1096E-04
       4.1096E-04  4.1096E-04  4.1096E-04  4.1096E-04  4.1096E-04  4.1096E-04
   4   4.1096E-04  4.1096E-04  4.1096E-04  4.1096E-04  4.1096E-04  4.1096E-04  4.1096E-04  4.1096E-04  4.1096E-04  4.1096E-04
       4.1096E-04  4.1096E-04  4.1096E-04  4.1096E-04  4.1096E-04  4.1096E-04  4.1096E-04  4.1096E-04  4.1096E-04  4.1096E-04
       4.1096E-04  4.1096E-04  4.1096E-04  4.1096E-04  4.1096E-04  4.1096E-04  4.1096E-04  4.1096E-04  4.1096E-04  4.1096E-04
       4.1096E-04  4.1096E-04  4.1096E-04  4.1096E-04  4.1096E-04  4.1096E-04  4.1096E-04  4.1096E-04  4.1096E-04  4.1096E-04
       4.1096E-04  4.1096E-04  4.1096E-04  4.1096E-04  4.1096E-04  4.1096E-04  4.1096E-04  4.1096E-04  4.1096E-04  4.1096E-04
       4.1096E-04  4.1096E-04  4.1096E-04  4.1096E-04  4.1096E-04  4.1096E-04  4.1096E-04  4.1096E-04  4.1096E-04  4.1096E-04
       4.1096E-04  4.1096E-04  4.1096E-04  4.1096E-04  4.1096E-04  4.1096E-04  4.1096E-04  4.1096E-04  4.1096E-04  4.1096E-04
       4.1096E-04  4.1096E-04  4.1096E-04  4.1096E-04  4.1096E-04  4.1096E-04  4.1096E-04  4.1096E-04  4.1096E-04  4.1096E-04
       4.1096E-04  4.1096E-04  4.1096E-04  4.1096E-04  4.1096E-04  4.1096E-04  4.1096E-04  4.1096E-04  4.1096E-04  4.1096E-04
       4.1096E-04  4.1096E-04  4.1096E-04  4.1096E-04  4.1096E-04  4.1096E-04  4.1096E-04  4.1096E-04  4.1096E-04  4.1096E-04
       4.1096E-04  4.1096E-04  4.1096E-04  4.1096E-04  4.1096E-04  4.1096E-04  4.1096E-04  4.1096E-04  4.1096E-04  4.1096E-04
       4.1096E-04  4.1096E-04  4.1096E-04  4.1096E-04  4.1096E-04  4.1096E-04  4.1096E-04  4.1096E-04  4.1096E-04  4.1096E-04
       4.1096E-04  4.1096E-04  4.1096E-04  4.1096E-04  4.1096E-04  4.1096E-04  4.1096E-04  4.1096E-04  4.1096E-04  4.1096E-04
       4.1096E-04  4.1096E-04  4.1096E-04  4.1096E-04  4.1096E-04  4.1096E-04  4.1096E-04  4.1096E-04  4.1096E-04  4.1096E-04
       4.1096E-04  4.1096E-04  4.1096E-04  4.1096E-04  4.1096E-04  4.1096E-04  4.1096E-04  4.1096E-04  4.1096E-04  4.1096E-04
       4.1096E-04  4.1096E-04  4.1096E-04  4.1096E-04  4.1096E-04  4.1096E-04  4.1096E-04  4.1096E-04  4.1096E-04  4.1096E-04
       4.1096E-04  4.1096E-04  4.1096E-04  4.1096E-04  4.1096E-04  4.1096E-04  4.1096E-04  4.1096E-04  4.1096E-04  4.1096E-04
       4.1096E-04  4.1096E-04  4.1096E-04  4.1096E-04  4.1096E-04  4.1096E-04  4.1096E-04  4.1096E-04  4.1096E-04  4.1096E-04
       4.1096E-04  4.1096E-04  4.1096E-04  4.1096E-04  4.1096E-04  4.1096E-04
   5   4.1096E-04  4.1096E-04  4.1096E-04  4.1096E-04  4.1096E-04  4.1096E-04  4.1096E-04  4.1096E-04  4.1096E-04  4.1096E-04
       4.1096E-04  4.1096E-04  4.1096E-04  4.1096E-04  4.1096E-04  4.1096E-04  4.1096E-04  4.1096E-04  4.1096E-04  4.1096E-04
       4.1096E-04  4.1096E-04  4.1096E-04  4.1096E-04  4.1096E-04  4.1096E-04  4.1096E-04  4.1096E-04  4.1096E-04  4.1096E-04
       4.1096E-04  4.1096E-04  4.1096E-04  4.1096E-04  4.1096E-04  4.1096E-04  4.1096E-04  4.1096E-04  4.1096E-04  4.1096E-04
       4.1096E-04  4.1096E-04  4.1096E-04  4.1096E-04  4.1096E-04  4.1096E-04  4.1096E-04  4.1096E-04  4.1096E-04  4.1096E-04
       4.1096E-04  4.1096E-04  4.1096E-04  4.1096E-04  4.1096E-04  4.1096E-04  4.1096E-04  4.1096E-04  4.1096E-04  4.1096E-04
       4.1096E-04  4.1096E-04  4.1096E-04  4.1096E-04  4.1096E-04  4.1096E-04  4.1096E-04  4.1096E-04  4.1096E-04  4.1096E-04
       4.1096E-04  4.1096E-04  4.1096E-04  4.1096E-04  4.1096E-04  4.1096E-04  4.1096E-04  4.1096E-04  4.1096E-04  4.1096E-04
       4.1096E-04  4.1096E-04  4.1096E-04  4.1096E-04  4.1096E-04  4.1096E-04  4.1096E-04  4.1096E-04  4.1096E-04  4.1096E-04
       4.1096E-04  4.1096E-04  4.1096E-04  4.1096E-04  4.1096E-04  4.1096E-04  4.1096E-04  4.1096E-04  4.1096E-04  4.1096E-04
       4.1096E-04  4.1096E-04  4.1096E-04  4.1096E-04  4.1096E-04  4.1096E-04  4.1096E-04  4.1096E-04  4.1096E-04  4.1096E-04
       4.1096E-04  4.1096E-04  4.1096E-04  4.1096E-04  4.1096E-04  4.1096E-04  4.1096E-04  4.1096E-04  4.1096E-04  4.1096E-04
       4.1096E-04  4.1096E-04  4.1096E-04  4.1096E-04  4.1096E-04  4.1096E-04  4.1096E-04  4.1096E-04  4.1096E-04  4.1096E-04
       4.1096E-04  4.1096E-04  4.1096E-04  4.1096E-04  4.1096E-04  4.1096E-04  4.1096E-04  4.1096E-04  4.1096E-04  4.1096E-04
       4.1096E-04  4.1096E-04  4.1096E-04  4.1096E-04  4.1096E-04  4.1096E-04  4.1096E-04  4.1096E-04  4.1096E-04  4.1096E-04
       4.1096E-04  4.1096E-04  4.1096E-04  4.1096E-04  4.1096E-04  4.1096E-04  4.1096E-04  4.1096E-04  4.1096E-04  4.1096E-04
       4.1096E-04  4.1096E-04  4.1096E-04  4.1096E-04  4.1096E-04  4.1096E-04  4.1096E-04  4.1096E-04  4.1096E-04  4.1096E-04
       4.1096E-04  4.1096E-04  4.1096E-04  4.1096E-04  4.1096E-04  4.1096E-04  4.1096E-04  4.1096E-04  4.1096E-04  4.1096E-04
       4.1096E-04  4.1096E-04  4.1096E-04  4.1096E-04  4.1096E-04  4.1096E-04
   6   4.1096E-04  4.1096E-04  4.1096E-04  4.1096E-04  4.1096E-04  4.1096E-04  4.1096E-04  4.1096E-04  4.1096E-04  4.1096E-04
       4.1096E-04  4.1096E-04  4.1096E-04  4.1096E-04  4.1096E-04  4.1096E-04  4.1096E-04  4.1096E-04  4.1096E-04  4.1096E-04
       4.1096E-04  4.1096E-04  4.1096E-04  4.1096E-04  4.1096E-04  4.1096E-04  4.1096E-04  4.1096E-04  4.1096E-04  4.1096E-04
       4.1096E-04  4.1096E-04  4.1096E-04  4.1096E-04  4.1096E-04  4.1096E-04  4.1096E-04  4.1096E-04  4.1096E-04  4.1096E-04
       4.1096E-04  4.1096E-04  4.1096E-04  4.1096E-04  4.1096E-04  4.1096E-04  4.1096E-04  4.1096E-04  4.1096E-04  4.1096E-04
       4.1096E-04  4.1096E-04  4.1096E-04  4.1096E-04  4.1096E-04  4.1096E-04  4.1096E-04  4.1096E-04  4.1096E-04  4.1096E-04
       4.1096E-04  4.1096E-04  4.1096E-04  4.1096E-04  4.1096E-04  4.1096E-04  4.1096E-04  4.1096E-04  4.1096E-04  4.1096E-04
       4.1096E-04  4.1096E-04  4.1096E-04  4.1096E-04  4.1096E-04  4.1096E-04  4.1096E-04  4.1096E-04  4.1096E-04  4.1096E-04
       4.1096E-04  4.1096E-04  4.1096E-04  4.1096E-04  4.1096E-04  4.1096E-04  4.1096E-04  4.1096E-04  4.1096E-04  4.1096E-04
       4.1096E-04  4.1096E-04  4.1096E-04  4.1096E-04  4.1096E-04  4.1096E-04  4.1096E-04  4.1096E-04  4.1096E-04  4.1096E-04
       4.1096E-04  4.1096E-04  4.1096E-04  4.1096E-04  4.1096E-04  4.1096E-04  4.1096E-04  4.1096E-04  4.1096E-04  4.1096E-04
       4.1096E-04  4.1096E-04  4.1096E-04  4.1096E-04  4.1096E-04  4.1096E-04  4.1096E-04  4.1096E-04  4.1096E-04  4.1096E-04
       4.1096E-04  4.1096E-04  4.1096E-04  4.1096E-04  4.1096E-04  4.1096E-04  4.1096E-04  4.1096E-04  4.1096E-04  4.1096E-04
       4.1096E-04  4.1096E-04  4.1096E-04  4.1096E-04  4.1096E-04  4.1096E-04  4.1096E-04  4.1096E-04  4.1096E-04  4.1096E-04
       4.1096E-04  4.1096E-04  4.1096E-04  4.1096E-04  4.1096E-04  4.1096E-04  4.1096E-04  4.1096E-04  4.1096E-04  4.1096E-04
       4.1096E-04  4.1096E-04  4.1096E-04  4.1096E-04  4.1096E-04  4.1096E-04  4.1096E-04  4.1096E-04  4.1096E-04  4.1096E-04
       4.1096E-04  4.1096E-04  4.1096E-04  4.1096E-04  4.1096E-04  4.1096E-04  4.1096E-04  4.1096E-04  4.1096E-04  4.1096E-04
       4.1096E-04  4.1096E-04  4.1096E-04  4.1096E-04  4.1096E-04  4.1096E-04  4.1096E-04  4.1096E-04  4.1096E-04  4.1096E-04
       4.1096E-04  4.1096E-04  4.1096E-04  4.1096E-04  4.1096E-04  4.1096E-04
   7   4.1096E-04  4.1096E-04  4.1096E-04  4.1096E-04  4.1096E-04  4.1096E-04  4.1096E-04  4.1096E-04  4.1096E-04  4.1096E-04
       4.1096E-04  4.1096E-04  4.1096E-04  4.1096E-04  4.1096E-04  4.1096E-04  4.1096E-04  4.1096E-04  4.1096E-04  4.1096E-04
       4.1096E-04  4.1096E-04  4.1096E-04  4.1096E-04  4.1096E-04  4.1096E-04  4.1096E-04  4.1096E-04  4.1096E-04  4.1096E-04
       4.1096E-04  4.1096E-04  4.1096E-04  4.1096E-04  4.1096E-04  4.1096E-04  4.1096E-04  4.1096E-04  4.1096E-04  4.1096E-04
       4.1096E-04  4.1096E-04  4.1096E-04  4.1096E-04  4.1096E-04  4.1096E-04  4.1096E-04  4.1096E-04  4.1096E-04  4.1096E-04
       4.1096E-04  4.1096E-04  4.1096E-04  4.1096E-04  4.1096E-04  4.1096E-04  4.1096E-04  4.1096E-04  4.1096E-04  4.1096E-04
       4.1096E-04  4.1096E-04  4.1096E-04  4.1096E-04  4.1096E-04  4.1096E-04  4.1096E-04  4.1096E-04  4.1096E-04  4.1096E-04
       4.1096E-04  4.1096E-04  4.1096E-04  4.1096E-04  4.1096E-04  4.1096E-04  4.1096E-04  4.1096E-04  4.1096E-04  4.1096E-04
       4.1096E-04  4.1096E-04  4.1096E-04  4.1096E-04  4.1096E-04  4.1096E-04  4.1096E-04  4.1096E-04  4.1096E-04  4.1096E-04
       4.1096E-04  4.1096E-04  4.1096E-04  4.1096E-04  4.1096E-04  4.1096E-04  4.1096E-04  4.1096E-04  4.1096E-04  4.1096E-04
       4.1096E-04  4.1096E-04  4.1096E-04  4.1096E-04  4.1096E-04  4.1096E-04  4.1096E-04  4.1096E-04  4.1096E-04  4.1096E-04
       4.1096E-04  4.1096E-04  4.1096E-04  4.1096E-04  4.1096E-04  4.1096E-04  4.1096E-04  4.1096E-04  4.1096E-04  4.1096E-04
       4.1096E-04  4.1096E-04  4.1096E-04  4.1096E-04  4.1096E-04  4.1096E-04  4.1096E-04  4.1096E-04  4.1096E-04  4.1096E-04
       4.1096E-04  4.1096E-04  4.1096E-04  4.1096E-04  4.1096E-04  4.1096E-04  4.1096E-04  4.1096E-04  4.1096E-04  4.1096E-04
       4.1096E-04  4.1096E-04  4.1096E-04  4.1096E-04  4.1096E-04  4.1096E-04  4.1096E-04  4.1096E-04  4.1096E-04  4.1096E-04
       4.1096E-04  4.1096E-04  4.1096E-04  4.1096E-04  4.1096E-04  4.1096E-04  4.1096E-04  4.1096E-04  4.1096E-04  4.1096E-04
       4.1096E-04  4.1096E-04  4.1096E-04  4.1096E-04  4.1096E-04  4.1096E-04  4.1096E-04  4.1096E-04  4.1096E-04  4.1096E-04
       4.1096E-04  4.1096E-04  4.1096E-04  4.1096E-04  4.1096E-04  4.1096E-04  4.1096E-04  4.1096E-04  4.1096E-04  4.1096E-04
       4.1096E-04  4.1096E-04  4.1096E-04  4.1096E-04  4.1096E-04  4.1096E-04
   8   4.1096E-04  4.1096E-04  4.1096E-04  4.1096E-04  4.1096E-04  4.1096E-04  4.1096E-04  4.1096E-04  4.1096E-04  4.1096E-04
       4.1096E-04  4.1096E-04  4.1096E-04  4.1096E-04  4.1096E-04  4.1096E-04  4.1096E-04  4.1096E-04  4.1096E-04  4.1096E-04
       4.1096E-04  4.1096E-04  4.1096E-04  4.1096E-04  4.1096E-04  4.1096E-04  4.1096E-04  4.1096E-04  4.1096E-04  4.1096E-04
       4.1096E-04  4.1096E-04  4.1096E-04  4.1096E-04  4.1096E-04  4.1096E-04  4.1096E-04  4.1096E-04  4.1096E-04  4.1096E-04
       4.1096E-04  4.1096E-04  4.1096E-04  4.1096E-04  4.1096E-04  4.1096E-04  4.1096E-04  4.1096E-04  4.1096E-04  4.1096E-04
       4.1096E-04  4.1096E-04  4.1096E-04  4.1096E-04  4.1096E-04  4.1096E-04  4.1096E-04  4.1096E-04  4.1096E-04  4.1096E-04
       4.1096E-04  4.1096E-04  4.1096E-04  4.1096E-04  4.1096E-04  4.1096E-04  4.1096E-04  4.1096E-04  4.1096E-04  4.1096E-04
       4.1096E-04  4.1096E-04  4.1096E-04  4.1096E-04  4.1096E-04  4.1096E-04  4.1096E-04  4.1096E-04  4.1096E-04  4.1096E-04
       4.1096E-04  4.1096E-04  4.1096E-04  4.1096E-04  4.1096E-04  4.1096E-04  4.1096E-04  4.1096E-04  4.1096E-04  4.1096E-04
       4.1096E-04  4.1096E-04  4.1096E-04  4.1096E-04  4.1096E-04  4.1096E-04  4.1096E-04  4.1096E-04  4.1096E-04  4.1096E-04
       4.1096E-04  4.1096E-04  4.1096E-04  4.1096E-04  4.1096E-04  4.1096E-04  4.1096E-04  4.1096E-04  4.1096E-04  4.1096E-04
       4.1096E-04  4.1096E-04  4.1096E-04  4.1096E-04  4.1096E-04  4.1096E-04  4.1096E-04  4.1096E-04  4.1096E-04  4.1096E-04
       4.1096E-04  4.1096E-04  4.1096E-04  4.1096E-04  4.1096E-04  4.1096E-04  4.1096E-04  4.1096E-04  4.1096E-04  4.1096E-04
       4.1096E-04  4.1096E-04  4.1096E-04  4.1096E-04  4.1096E-04  4.1096E-04  4.1096E-04  4.1096E-04  4.1096E-04  4.1096E-04
       4.1096E-04  4.1096E-04  4.1096E-04  4.1096E-04  4.1096E-04  4.1096E-04  4.1096E-04  4.1096E-04  4.1096E-04  4.1096E-04
       4.1096E-04  4.1096E-04  4.1096E-04  4.1096E-04  4.1096E-04  4.1096E-04  4.1096E-04  4.1096E-04  4.1096E-04  4.1096E-04
       4.1096E-04  4.1096E-04  4.1096E-04  4.1096E-04  4.1096E-04  4.1096E-04  4.1096E-04  4.1096E-04  4.1096E-04  4.1096E-04
       4.1096E-04  4.1096E-04  4.1096E-04  4.1096E-04  4.1096E-04  4.1096E-04  4.1096E-04  4.1096E-04  4.1096E-04  4.1096E-04
       4.1096E-04  4.1096E-04  4.1096E-04  4.1096E-04  4.1096E-04  4.1096E-04
   9   4.1096E-04  4.1096E-04  4.1096E-04  4.1096E-04  4.1096E-04  4.1096E-04  4.1096E-04  4.1096E-04  4.1096E-04  4.1096E-04
       4.1096E-04  4.1096E-04  4.1096E-04  4.1096E-04  4.1096E-04  4.1096E-04  4.1096E-04  4.1096E-04  4.1096E-04  4.1096E-04
       4.1096E-04  4.1096E-04  4.1096E-04  4.1096E-04  4.1096E-04  4.1096E-04  4.1096E-04  4.1096E-04  4.1096E-04  4.1096E-04
       4.1096E-04  4.1096E-04  4.1096E-04  4.1096E-04  4.1096E-04  4.1096E-04  4.1096E-04  4.1096E-04  4.1096E-04  4.1096E-04
       4.1096E-04  4.1096E-04  4.1096E-04  4.1096E-04  4.1096E-04  4.1096E-04  4.1096E-04  4.1096E-04  4.1096E-04  4.1096E-04
       4.1096E-04  4.1096E-04  4.1096E-04  4.1096E-04  4.1096E-04  4.1096E-04  4.1096E-04  4.1096E-04  4.1096E-04  4.1096E-04
       4.1096E-04  4.1096E-04  4.1096E-04  4.1096E-04  4.1096E-04  4.1096E-04  4.1096E-04  4.1096E-04  4.1096E-04  4.1096E-04
       4.1096E-04  4.1096E-04  4.1096E-04  4.1096E-04  4.1096E-04  4.1096E-04  4.1096E-04  4.1096E-04  4.1096E-04  4.1096E-04
       4.1096E-04  4.1096E-04  4.1096E-04  4.1096E-04  4.1096E-04  4.1096E-04  4.1096E-04  4.1096E-04  4.1096E-04  4.1096E-04
       4.1096E-04  4.1096E-04  4.1096E-04  4.1096E-04  4.1096E-04  4.1096E-04  4.1096E-04  4.1096E-04  4.1096E-04  4.1096E-04
       4.1096E-04  4.1096E-04  4.1096E-04  4.1096E-04  4.1096E-04  4.1096E-04  4.1096E-04  4.1096E-04  4.1096E-04  4.1096E-04
       4.1096E-04  4.1096E-04  4.1096E-04  4.1096E-04  4.1096E-04  4.1096E-04  4.1096E-04  4.1096E-04  4.1096E-04  4.1096E-04
       4.1096E-04  4.1096E-04  4.1096E-04  4.1096E-04  4.1096E-04  4.1096E-04  4.1096E-04  4.1096E-04  4.1096E-04  4.1096E-04
       4.1096E-04  4.1096E-04  4.1096E-04  4.1096E-04  4.1096E-04  4.1096E-04  4.1096E-04  4.1096E-04  4.1096E-04  4.1096E-04
       4.1096E-04  4.1096E-04  4.1096E-04  4.1096E-04  4.1096E-04  4.1096E-04  4.1096E-04  4.1096E-04  4.1096E-04  4.1096E-04
       4.1096E-04  4.1096E-04  4.1096E-04  4.1096E-04  4.1096E-04  4.1096E-04  4.1096E-04  4.1096E-04  4.1096E-04  4.1096E-04
       4.1096E-04  4.1096E-04  4.1096E-04  4.1096E-04  4.1096E-04  4.1096E-04  4.1096E-04  4.1096E-04  4.1096E-04  4.1096E-04
       4.1096E-04  4.1096E-04  4.1096E-04  4.1096E-04  4.1096E-04  4.1096E-04  4.1096E-04  4.1096E-04  4.1096E-04  4.1096E-04
       4.1096E-04  4.1096E-04  4.1096E-04  4.1096E-04  4.1096E-04  4.1096E-04
  10   4.1096E-04  4.1096E-04  4.1096E-04  4.1096E-04  4.1096E-04  4.1096E-04  4.1096E-04  4.1096E-04  4.1096E-04  4.1096E-04
       4.1096E-04  4.1096E-04  4.1096E-04  4.1096E-04  4.1096E-04  4.1096E-04  4.1096E-04  4.1096E-04  4.1096E-04  4.1096E-04
       4.1096E-04  4.1096E-04  4.1096E-04  4.1096E-04  4.1096E-04  4.1096E-04  4.1096E-04  4.1096E-04  4.1096E-04  4.1096E-04
       4.1096E-04  4.1096E-04  4.1096E-04  4.1096E-04  4.1096E-04  4.1096E-04  4.1096E-04  4.1096E-04  4.1096E-04  4.1096E-04
       4.1096E-04  4.1096E-04  4.1096E-04  4.1096E-04  4.1096E-04  4.1096E-04  4.1096E-04  4.1096E-04  4.1096E-04  4.1096E-04
       4.1096E-04  4.1096E-04  4.1096E-04  4.1096E-04  4.1096E-04  4.1096E-04  4.1096E-04  4.1096E-04  4.1096E-04  4.1096E-04
       4.1096E-04  4.1096E-04  4.1096E-04  4.1096E-04  4.1096E-04  4.1096E-04  4.1096E-04  4.1096E-04  4.1096E-04  4.1096E-04
       4.1096E-04  4.1096E-04  4.1096E-04  4.1096E-04  4.1096E-04  4.1096E-04  4.1096E-04  4.1096E-04  4.1096E-04  4.1096E-04
       4.1096E-04  4.1096E-04  4.1096E-04  4.1096E-04  4.1096E-04  4.1096E-04  4.1096E-04  4.1096E-04  4.1096E-04  4.1096E-04
       4.1096E-04  4.1096E-04  4.1096E-04  4.1096E-04  4.1096E-04  4.1096E-04  4.1096E-04  4.1096E-04  4.1096E-04  4.1096E-04
       4.1096E-04  4.1096E-04  4.1096E-04  4.1096E-04  4.1096E-04  4.1096E-04  4.1096E-04  4.1096E-04  4.1096E-04  4.1096E-04
       4.1096E-04  4.1096E-04  4.1096E-04  4.1096E-04  4.1096E-04  4.1096E-04  4.1096E-04  4.1096E-04  4.1096E-04  4.1096E-04
       4.1096E-04  4.1096E-04  4.1096E-04  4.1096E-04  4.1096E-04  4.1096E-04  4.1096E-04  4.1096E-04  4.1096E-04  4.1096E-04
       4.1096E-04  4.1096E-04  4.1096E-04  4.1096E-04  4.1096E-04  4.1096E-04  4.1096E-04  4.1096E-04  4.1096E-04  4.1096E-04
       4.1096E-04  4.1096E-04  4.1096E-04  4.1096E-04  4.1096E-04  4.1096E-04  4.1096E-04  4.1096E-04  4.1096E-04  4.1096E-04
       4.1096E-04  4.1096E-04  4.1096E-04  4.1096E-04  4.1096E-04  4.1096E-04  4.1096E-04  4.1096E-04  4.1096E-04  4.1096E-04
       4.1096E-04  4.1096E-04  4.1096E-04  4.1096E-04  4.1096E-04  4.1096E-04  4.1096E-04  4.1096E-04  4.1096E-04  4.1096E-04
       4.1096E-04  4.1096E-04  4.1096E-04  4.1096E-04  4.1096E-04  4.1096E-04  4.1096E-04  4.1096E-04  4.1096E-04  4.1096E-04
       4.1096E-04  4.1096E-04  4.1096E-04  4.1096E-04  4.1096E-04  4.1096E-04
  11   4.1096E-04  4.1096E-04  4.1096E-04  4.1096E-04  4.1096E-04  4.1096E-04  4.1096E-04  4.1096E-04  4.1096E-04  4.1096E-04
       4.1096E-04  4.1096E-04  4.1096E-04  4.1096E-04  4.1096E-04  4.1096E-04  4.1096E-04  4.1096E-04  4.1096E-04  4.1096E-04
       4.1096E-04  4.1096E-04  4.1096E-04  4.1096E-04  4.1096E-04  4.1096E-04  4.1096E-04  4.1096E-04  4.1096E-04  4.1096E-04
       4.1096E-04  4.1096E-04  4.1096E-04  4.1096E-04  4.1096E-04  4.1096E-04  4.1096E-04  4.1096E-04  4.1096E-04  4.1096E-04
       4.1096E-04  4.1096E-04  4.1096E-04  4.1096E-04  4.1096E-04  4.1096E-04  4.1096E-04  4.1096E-04  4.1096E-04  4.1096E-04
       4.1096E-04  4.1096E-04  4.1096E-04  4.1096E-04  4.1096E-04  4.1096E-04  4.1096E-04  4.1096E-04  4.1096E-04  4.1096E-04
       4.1096E-04  4.1096E-04  4.1096E-04  4.1096E-04  4.1096E-04  4.1096E-04  4.1096E-04  4.1096E-04  4.1096E-04  4.1096E-04
       4.1096E-04  4.1096E-04  4.1096E-04  4.1096E-04  4.1096E-04  4.1096E-04  4.1096E-04  4.1096E-04  4.1096E-04  4.1096E-04
       4.1096E-04  4.1096E-04  4.1096E-04  4.1096E-04  4.1096E-04  4.1096E-04  4.1096E-04  4.1096E-04  4.1096E-04  4.1096E-04
       4.1096E-04  4.1096E-04  4.1096E-04  4.1096E-04  4.1096E-04  4.1096E-04  4.1096E-04  4.1096E-04  4.1096E-04  4.1096E-04
       4.1096E-04  4.1096E-04  4.1096E-04  4.1096E-04  4.1096E-04  4.1096E-04  4.1096E-04  4.1096E-04  4.1096E-04  4.1096E-04
       4.1096E-04  4.1096E-04  4.1096E-04  4.1096E-04  4.1096E-04  4.1096E-04  4.1096E-04  4.1096E-04  4.1096E-04  4.1096E-04
       4.1096E-04  4.1096E-04  4.1096E-04  4.1096E-04  4.1096E-04  4.1096E-04  4.1096E-04  4.1096E-04  4.1096E-04  4.1096E-04
       4.1096E-04  4.1096E-04  4.1096E-04  4.1096E-04  4.1096E-04  4.1096E-04  4.1096E-04  4.1096E-04  4.1096E-04  4.1096E-04
       4.1096E-04  4.1096E-04  4.1096E-04  4.1096E-04  4.1096E-04  4.1096E-04  4.1096E-04  4.1096E-04  4.1096E-04  4.1096E-04
       4.1096E-04  4.1096E-04  4.1096E-04  4.1096E-04  4.1096E-04  4.1096E-04  4.1096E-04  4.1096E-04  4.1096E-04  4.1096E-04
       4.1096E-04  4.1096E-04  4.1096E-04  4.1096E-04  4.1096E-04  4.1096E-04  4.1096E-04  4.1096E-04  4.1096E-04  4.1096E-04
       4.1096E-04  4.1096E-04  4.1096E-04  4.1096E-04  4.1096E-04  4.1096E-04  4.1096E-04  4.1096E-04  4.1096E-04  4.1096E-04
       4.1096E-04  4.1096E-04  4.1096E-04  4.1096E-04  4.1096E-04  4.1096E-04
  12   4.1096E-04  4.1096E-04  4.1096E-04  4.1096E-04  4.1096E-04  4.1096E-04  4.1096E-04  4.1096E-04  4.1096E-04  4.1096E-04
       4.1096E-04  4.1096E-04  4.1096E-04  4.1096E-04  4.1096E-04  4.1096E-04  4.1096E-04  4.1096E-04  4.1096E-04  4.1096E-04
       4.1096E-04  4.1096E-04  4.1096E-04  4.1096E-04  4.1096E-04  4.1096E-04  4.1096E-04  4.1096E-04  4.1096E-04  4.1096E-04
       4.1096E-04  4.1096E-04  4.1096E-04  4.1096E-04  4.1096E-04  4.1096E-04  4.1096E-04  4.1096E-04  4.1096E-04  4.1096E-04
       4.1096E-04  4.1096E-04  4.1096E-04  4.1096E-04  4.1096E-04  4.1096E-04  4.1096E-04  4.1096E-04  4.1096E-04  4.1096E-04
       4.1096E-04  4.1096E-04  4.1096E-04  4.1096E-04  4.1096E-04  4.1096E-04  4.1096E-04  4.1096E-04  4.1096E-04  4.1096E-04
       4.1096E-04  4.1096E-04  4.1096E-04  4.1096E-04  4.1096E-04  4.1096E-04  4.1096E-04  4.1096E-04  4.1096E-04  4.1096E-04
       4.1096E-04  4.1096E-04  4.1096E-04  4.1096E-04  4.1096E-04  4.1096E-04  4.1096E-04  4.1096E-04  4.1096E-04  4.1096E-04
       4.1096E-04  4.1096E-04  4.1096E-04  4.1096E-04  4.1096E-04  4.1096E-04  4.1096E-04  4.1096E-04  4.1096E-04  4.1096E-04
       4.1096E-04  4.1096E-04  4.1096E-04  4.1096E-04  4.1096E-04  4.1096E-04  4.1096E-04  4.1096E-04  4.1096E-04  4.1096E-04
       4.1096E-04  4.1096E-04  4.1096E-04  4.1096E-04  4.1096E-04  4.1096E-04  4.1096E-04  4.1096E-04  4.1096E-04  4.1096E-04
       4.1096E-04  4.1096E-04  4.1096E-04  4.1096E-04  4.1096E-04  4.1096E-04  4.1096E-04  4.1096E-04  4.1096E-04  4.1096E-04
       4.1096E-04  4.1096E-04  4.1096E-04  4.1096E-04  4.1096E-04  4.1096E-04  4.1096E-04  4.1096E-04  4.1096E-04  4.1096E-04
       4.1096E-04  4.1096E-04  4.1096E-04  4.1096E-04  4.1096E-04  4.1096E-04  4.1096E-04  4.1096E-04  4.1096E-04  4.1096E-04
       4.1096E-04  4.1096E-04  4.1096E-04  4.1096E-04  4.1096E-04  4.1096E-04  4.1096E-04  4.1096E-04  4.1096E-04  4.1096E-04
       4.1096E-04  4.1096E-04  4.1096E-04  4.1096E-04  4.1096E-04  4.1096E-04  4.1096E-04  4.1096E-04  4.1096E-04  4.1096E-04
       4.1096E-04  4.1096E-04  4.1096E-04  4.1096E-04  4.1096E-04  4.1096E-04  4.1096E-04  4.1096E-04  4.1096E-04  4.1096E-04
       4.1096E-04  4.1096E-04  4.1096E-04  4.1096E-04  4.1096E-04  4.1096E-04  4.1096E-04  4.1096E-04  4.1096E-04  4.1096E-04
       4.1096E-04  4.1096E-04  4.1096E-04  4.1096E-04  4.1096E-04  4.1096E-04
  13   4.1096E-04  4.1096E-04  4.1096E-04  4.1096E-04  4.1096E-04  4.1096E-04  4.1096E-04  4.1096E-04  4.1096E-04  4.1096E-04
       4.1096E-04  4.1096E-04  4.1096E-04  4.1096E-04  4.1096E-04  4.1096E-04  4.1096E-04  4.1096E-04  4.1096E-04  4.1096E-04
       4.1096E-04  4.1096E-04  4.1096E-04  4.1096E-04  4.1096E-04  4.1096E-04  4.1096E-04  4.1096E-04  4.1096E-04  4.1096E-04
       4.1096E-04  4.1096E-04  4.1096E-04  4.1096E-04  4.1096E-04  4.1096E-04  4.1096E-04  4.1096E-04  4.1096E-04  4.1096E-04
       4.1096E-04  4.1096E-04  4.1096E-04  4.1096E-04  4.1096E-04  4.1096E-04  4.1096E-04  4.1096E-04  4.1096E-04  4.1096E-04
       4.1096E-04  4.1096E-04  4.1096E-04  4.1096E-04  4.1096E-04  4.1096E-04  4.1096E-04  4.1096E-04  4.1096E-04  4.1096E-04
       4.1096E-04  4.1096E-04  4.1096E-04  4.1096E-04  4.1096E-04  4.1096E-04  4.1096E-04  4.1096E-04  4.1096E-04  4.1096E-04
       4.1096E-04  4.1096E-04  4.1096E-04  4.1096E-04  4.1096E-04  4.1096E-04  4.1096E-04  4.1096E-04  4.1096E-04  4.1096E-04
       4.1096E-04  4.1096E-04  4.1096E-04  4.1096E-04  4.1096E-04  4.1096E-04  4.1096E-04  4.1096E-04  4.1096E-04  4.1096E-04
       4.1096E-04  4.1096E-04  4.1096E-04  4.1096E-04  4.1096E-04  4.1096E-04  4.1096E-04  4.1096E-04  4.1096E-04  4.1096E-04
       4.1096E-04  4.1096E-04  4.1096E-04  4.1096E-04  4.1096E-04  4.1096E-04  4.1096E-04  4.1096E-04  4.1096E-04  4.1096E-04
       4.1096E-04  4.1096E-04  4.1096E-04  4.1096E-04  4.1096E-04  4.1096E-04  4.1096E-04  4.1096E-04  4.1096E-04  4.1096E-04
       4.1096E-04  4.1096E-04  4.1096E-04  4.1096E-04  4.1096E-04  4.1096E-04  4.1096E-04  4.1096E-04  4.1096E-04  4.1096E-04
       4.1096E-04  4.1096E-04  4.1096E-04  4.1096E-04  4.1096E-04  4.1096E-04  4.1096E-04  4.1096E-04  4.1096E-04  4.1096E-04
       4.1096E-04  4.1096E-04  4.1096E-04  4.1096E-04  4.1096E-04  4.1096E-04  4.1096E-04  4.1096E-04  4.1096E-04  4.1096E-04
       4.1096E-04  4.1096E-04  4.1096E-04  4.1096E-04  4.1096E-04  4.1096E-04  4.1096E-04  4.1096E-04  4.1096E-04  4.1096E-04
       4.1096E-04  4.1096E-04  4.1096E-04  4.1096E-04  4.1096E-04  4.1096E-04  4.1096E-04  4.1096E-04  4.1096E-04  4.1096E-04
       4.1096E-04  4.1096E-04  4.1096E-04  4.1096E-04  4.1096E-04  4.1096E-04  4.1096E-04  4.1096E-04  4.1096E-04  4.1096E-04
       4.1096E-04  4.1096E-04  4.1096E-04  4.1096E-04  4.1096E-04  4.1096E-04
  14   4.1096E-04  4.1096E-04  4.1096E-04  4.1096E-04  4.1096E-04  4.1096E-04  4.1096E-04  4.1096E-04  4.1096E-04  4.1096E-04
       4.1096E-04  4.1096E-04  4.1096E-04  4.1096E-04  4.1096E-04  4.1096E-04  4.1096E-04  4.1096E-04  4.1096E-04  4.1096E-04
       4.1096E-04  4.1096E-04  4.1096E-04  4.1096E-04  4.1096E-04  4.1096E-04  4.1096E-04  4.1096E-04  4.1096E-04  4.1096E-04
       4.1096E-04  4.1096E-04  4.1096E-04  4.1096E-04  4.1096E-04  4.1096E-04  4.1096E-04  4.1096E-04  4.1096E-04  4.1096E-04
       4.1096E-04  4.1096E-04  4.1096E-04  4.1096E-04  4.1096E-04  4.1096E-04  4.1096E-04  4.1096E-04  4.1096E-04  4.1096E-04
       4.1096E-04  4.1096E-04  4.1096E-04  4.1096E-04  4.1096E-04  4.1096E-04  4.1096E-04  4.1096E-04  4.1096E-04  4.1096E-04
       4.1096E-04  4.1096E-04  4.1096E-04  4.1096E-04  4.1096E-04  4.1096E-04  4.1096E-04  4.1096E-04  4.1096E-04  4.1096E-04
       4.1096E-04  4.1096E-04  4.1096E-04  4.1096E-04  4.1096E-04  4.1096E-04  4.1096E-04  4.1096E-04  4.1096E-04  4.1096E-04
       4.1096E-04  4.1096E-04  4.1096E-04  4.1096E-04  4.1096E-04  4.1096E-04  4.1096E-04  4.1096E-04  4.1096E-04  4.1096E-04
       4.1096E-04  4.1096E-04  4.1096E-04  4.1096E-04  4.1096E-04  4.1096E-04  4.1096E-04  4.1096E-04  4.1096E-04  4.1096E-04
       4.1096E-04  4.1096E-04  4.1096E-04  4.1096E-04  4.1096E-04  4.1096E-04  4.1096E-04  4.1096E-04  4.1096E-04  4.1096E-04
       4.1096E-04  4.1096E-04  4.1096E-04  4.1096E-04  4.1096E-04  4.1096E-04  4.1096E-04  4.1096E-04  4.1096E-04  4.1096E-04
       4.1096E-04  4.1096E-04  4.1096E-04  4.1096E-04  4.1096E-04  4.1096E-04  4.1096E-04  4.1096E-04  4.1096E-04  4.1096E-04
       4.1096E-04  4.1096E-04  4.1096E-04  4.1096E-04  4.1096E-04  4.1096E-04  4.1096E-04  4.1096E-04  4.1096E-04  4.1096E-04
       4.1096E-04  4.1096E-04  4.1096E-04  4.1096E-04  4.1096E-04  4.1096E-04  4.1096E-04  4.1096E-04  4.1096E-04  4.1096E-04
       4.1096E-04  4.1096E-04  4.1096E-04  4.1096E-04  4.1096E-04  4.1096E-04  4.1096E-04  4.1096E-04  4.1096E-04  4.1096E-04
       4.1096E-04  4.1096E-04  4.1096E-04  4.1096E-04  4.1096E-04  4.1096E-04  4.1096E-04  4.1096E-04  4.1096E-04  4.1096E-04
       4.1096E-04  4.1096E-04  4.1096E-04  4.1096E-04  4.1096E-04  4.1096E-04  4.1096E-04  4.1096E-04  4.1096E-04  4.1096E-04
       4.1096E-04  4.1096E-04  4.1096E-04  4.1096E-04  4.1096E-04  4.1096E-04
  15   4.1096E-04  4.1096E-04  4.1096E-04  4.1096E-04  4.1096E-04  4.1096E-04  4.1096E-04  4.1096E-04  4.1096E-04  4.1096E-04
       4.1096E-04  4.1096E-04  4.1096E-04  4.1096E-04  4.1096E-04  4.1096E-04  4.1096E-04  4.1096E-04  4.1096E-04  4.1096E-04
       4.1096E-04  4.1096E-04  4.1096E-04  4.1096E-04  4.1096E-04  4.1096E-04  4.1096E-04  4.1096E-04  4.1096E-04  4.1096E-04
       4.1096E-04  4.1096E-04  4.1096E-04  4.1096E-04  4.1096E-04  4.1096E-04  4.1096E-04  4.1096E-04  4.1096E-04  4.1096E-04
       4.1096E-04  4.1096E-04  4.1096E-04  4.1096E-04  4.1096E-04  4.1096E-04  4.1096E-04  4.1096E-04  4.1096E-04  4.1096E-04
       4.1096E-04  4.1096E-04  4.1096E-04  4.1096E-04  4.1096E-04  4.1096E-04  4.1096E-04  4.1096E-04  4.1096E-04  4.1096E-04
       4.1096E-04  4.1096E-04  4.1096E-04  4.1096E-04  4.1096E-04  4.1096E-04  4.1096E-04  4.1096E-04  4.1096E-04  4.1096E-04
       4.1096E-04  4.1096E-04  4.1096E-04  4.1096E-04  4.1096E-04  4.1096E-04  4.1096E-04  4.1096E-04  4.1096E-04  4.1096E-04
       4.1096E-04  4.1096E-04  4.1096E-04  4.1096E-04  4.1096E-04  4.1096E-04  4.1096E-04  4.1096E-04  4.1096E-04  4.1096E-04
       4.1096E-04  4.1096E-04  4.1096E-04  4.1096E-04  4.1096E-04  4.1096E-04  4.1096E-04  4.1096E-04  4.1096E-04  4.1096E-04
       4.1096E-04  4.1096E-04  4.1096E-04  4.1096E-04  4.1096E-04  4.1096E-04  4.1096E-04  4.1096E-04  4.1096E-04  4.1096E-04
       4.1096E-04  4.1096E-04  4.1096E-04  4.1096E-04  4.1096E-04  4.1096E-04  4.1096E-04  4.1096E-04  4.1096E-04  4.1096E-04
       4.1096E-04  4.1096E-04  4.1096E-04  4.1096E-04  4.1096E-04  4.1096E-04  4.1096E-04  4.1096E-04  4.1096E-04  4.1096E-04
       4.1096E-04  4.1096E-04  4.1096E-04  4.1096E-04  4.1096E-04  4.1096E-04  4.1096E-04  4.1096E-04  4.1096E-04  4.1096E-04
       4.1096E-04  4.1096E-04  4.1096E-04  4.1096E-04  4.1096E-04  4.1096E-04  4.1096E-04  4.1096E-04  4.1096E-04  4.1096E-04
       4.1096E-04  4.1096E-04  4.1096E-04  4.1096E-04  4.1096E-04  4.1096E-04  4.1096E-04  4.1096E-04  4.1096E-04  4.1096E-04
       4.1096E-04  4.1096E-04  4.1096E-04  4.1096E-04  4.1096E-04  4.1096E-04  4.1096E-04  4.1096E-04  4.1096E-04  4.1096E-04
       4.1096E-04  4.1096E-04  4.1096E-04  4.1096E-04  4.1096E-04  4.1096E-04  4.1096E-04  4.1096E-04  4.1096E-04  4.1096E-04
       4.1096E-04  4.1096E-04  4.1096E-04  4.1096E-04  4.1096E-04  4.1096E-04
  16   4.1096E-04  4.1096E-04  4.1096E-04  4.1096E-04  4.1096E-04  4.1096E-04  4.1096E-04  4.1096E-04  4.1096E-04  4.1096E-04
       4.1096E-04  4.1096E-04  4.1096E-04  4.1096E-04  4.1096E-04  4.1096E-04  4.1096E-04  4.1096E-04  4.1096E-04  4.1096E-04
       4.1096E-04  4.1096E-04  4.1096E-04  4.1096E-04  4.1096E-04  4.1096E-04  4.1096E-04  4.1096E-04  4.1096E-04  4.1096E-04
       4.1096E-04  4.1096E-04  4.1096E-04  4.1096E-04  4.1096E-04  4.1096E-04  4.1096E-04  4.1096E-04  4.1096E-04  4.1096E-04
       4.1096E-04  4.1096E-04  4.1096E-04  4.1096E-04  4.1096E-04  4.1096E-04  4.1096E-04  4.1096E-04  4.1096E-04  4.1096E-04
       4.1096E-04  4.1096E-04  4.1096E-04  4.1096E-04  4.1096E-04  4.1096E-04  4.1096E-04  4.1096E-04  4.1096E-04  4.1096E-04
       4.1096E-04  4.1096E-04  4.1096E-04  4.1096E-04  4.1096E-04  4.1096E-04  4.1096E-04  4.1096E-04  4.1096E-04  4.1096E-04
       4.1096E-04  4.1096E-04  4.1096E-04  4.1096E-04  4.1096E-04  4.1096E-04  4.1096E-04  4.1096E-04  4.1096E-04  4.1096E-04
       4.1096E-04  4.1096E-04  4.1096E-04  4.1096E-04  4.1096E-04  4.1096E-04  4.1096E-04  4.1096E-04  4.1096E-04  4.1096E-04
       4.1096E-04  4.1096E-04  4.1096E-04  4.1096E-04  4.1096E-04  4.1096E-04  4.1096E-04  4.1096E-04  4.1096E-04  4.1096E-04
       4.1096E-04  4.1096E-04  4.1096E-04  4.1096E-04  4.1096E-04  4.1096E-04  4.1096E-04  4.1096E-04  4.1096E-04  4.1096E-04
       4.1096E-04  4.1096E-04  4.1096E-04  4.1096E-04  4.1096E-04  4.1096E-04  4.1096E-04  4.1096E-04  4.1096E-04  4.1096E-04
       4.1096E-04  4.1096E-04  4.1096E-04  4.1096E-04  4.1096E-04  4.1096E-04  4.1096E-04  4.1096E-04  4.1096E-04  4.1096E-04
       4.1096E-04  4.1096E-04  4.1096E-04  4.1096E-04  4.1096E-04  4.1096E-04  4.1096E-04  4.1096E-04  4.1096E-04  4.1096E-04
       4.1096E-04  4.1096E-04  4.1096E-04  4.1096E-04  4.1096E-04  4.1096E-04  4.1096E-04  4.1096E-04  4.1096E-04  4.1096E-04
       4.1096E-04  4.1096E-04  4.1096E-04  4.1096E-04  4.1096E-04  4.1096E-04  4.1096E-04  4.1096E-04  4.1096E-04  4.1096E-04
       4.1096E-04  4.1096E-04  4.1096E-04  4.1096E-04  4.1096E-04  4.1096E-04  4.1096E-04  4.1096E-04  4.1096E-04  4.1096E-04
       4.1096E-04  4.1096E-04  4.1096E-04  4.1096E-04  4.1096E-04  4.1096E-04  4.1096E-04  4.1096E-04  4.1096E-04  4.1096E-04
       4.1096E-04  4.1096E-04  4.1096E-04  4.1096E-04  4.1096E-04  4.1096E-04
  17   4.1096E-04  4.1096E-04  4.1096E-04  4.1096E-04  4.1096E-04  4.1096E-04  4.1096E-04  4.1096E-04  4.1096E-04  4.1096E-04
       4.1096E-04  4.1096E-04  4.1096E-04  4.1096E-04  4.1096E-04  4.1096E-04  4.1096E-04  4.1096E-04  4.1096E-04  4.1096E-04
       4.1096E-04  4.1096E-04  4.1096E-04  4.1096E-04  4.1096E-04  4.1096E-04  4.1096E-04  4.1096E-04  4.1096E-04  4.1096E-04
       4.1096E-04  4.1096E-04  4.1096E-04  4.1096E-04  4.1096E-04  4.1096E-04  4.1096E-04  4.1096E-04  4.1096E-04  4.1096E-04
       4.1096E-04  4.1096E-04  4.1096E-04  4.1096E-04  4.1096E-04  4.1096E-04  4.1096E-04  4.1096E-04  4.1096E-04  4.1096E-04
       4.1096E-04  4.1096E-04  4.1096E-04  4.1096E-04  4.1096E-04  4.1096E-04  4.1096E-04  4.1096E-04  4.1096E-04  4.1096E-04
       4.1096E-04  4.1096E-04  4.1096E-04  4.1096E-04  4.1096E-04  4.1096E-04  4.1096E-04  4.1096E-04  4.1096E-04  4.1096E-04
       4.1096E-04  4.1096E-04  4.1096E-04  4.1096E-04  4.1096E-04  4.1096E-04  4.1096E-04  4.1096E-04  4.1096E-04  4.1096E-04
       4.1096E-04  4.1096E-04  4.1096E-04  4.1096E-04  4.1096E-04  4.1096E-04  4.1096E-04  4.1096E-04  4.1096E-04  4.1096E-04
       4.1096E-04  4.1096E-04  4.1096E-04  4.1096E-04  4.1096E-04  4.1096E-04  4.1096E-04  4.1096E-04  4.1096E-04  4.1096E-04
       4.1096E-04  4.1096E-04  4.1096E-04  4.1096E-04  4.1096E-04  4.1096E-04  4.1096E-04  4.1096E-04  4.1096E-04  4.1096E-04
       4.1096E-04  4.1096E-04  4.1096E-04  4.1096E-04  4.1096E-04  4.1096E-04  4.1096E-04  4.1096E-04  4.1096E-04  4.1096E-04
       4.1096E-04  4.1096E-04  4.1096E-04  4.1096E-04  4.1096E-04  4.1096E-04  4.1096E-04  4.1096E-04  4.1096E-04  4.1096E-04
       4.1096E-04  4.1096E-04  4.1096E-04  4.1096E-04  4.1096E-04  4.1096E-04  4.1096E-04  4.1096E-04  4.1096E-04  4.1096E-04
       4.1096E-04  4.1096E-04  4.1096E-04  4.1096E-04  4.1096E-04  4.1096E-04  4.1096E-04  4.1096E-04  4.1096E-04  4.1096E-04
       4.1096E-04  4.1096E-04  4.1096E-04  4.1096E-04  4.1096E-04  4.1096E-04  4.1096E-04  4.1096E-04  4.1096E-04  4.1096E-04
       4.1096E-04  4.1096E-04  4.1096E-04  4.1096E-04  4.1096E-04  4.1096E-04  4.1096E-04  4.1096E-04  4.1096E-04  4.1096E-04
       4.1096E-04  4.1096E-04  4.1096E-04  4.1096E-04  4.1096E-04  4.1096E-04  4.1096E-04  4.1096E-04  4.1096E-04  4.1096E-04
       4.1096E-04  4.1096E-04  4.1096E-04  4.1096E-04  4.1096E-04  4.1096E-04
  18   4.1096E-04  4.1096E-04  4.1096E-04  4.1096E-04  4.1096E-04  4.1096E-04  4.1096E-04  4.1096E-04  4.1096E-04  4.1096E-04
       4.1096E-04  4.1096E-04  4.1096E-04  4.1096E-04  4.1096E-04  4.1096E-04  4.1096E-04  4.1096E-04  4.1096E-04  4.1096E-04
       4.1096E-04  4.1096E-04  4.1096E-04  4.1096E-04  4.1096E-04  4.1096E-04  4.1096E-04  4.1096E-04  4.1096E-04  4.1096E-04
       4.1096E-04  4.1096E-04  4.1096E-04  4.1096E-04  4.1096E-04  4.1096E-04  4.1096E-04  4.1096E-04  4.1096E-04  4.1096E-04
       4.1096E-04  4.1096E-04  4.1096E-04  4.1096E-04  4.1096E-04  4.1096E-04  4.1096E-04  4.1096E-04  4.1096E-04  4.1096E-04
       4.1096E-04  4.1096E-04  4.1096E-04  4.1096E-04  4.1096E-04  4.1096E-04  4.1096E-04  4.1096E-04  4.1096E-04  4.1096E-04
       4.1096E-04  4.1096E-04  4.1096E-04  4.1096E-04  4.1096E-04  4.1096E-04  4.1096E-04  4.1096E-04  4.1096E-04  4.1096E-04
       4.1096E-04  4.1096E-04  4.1096E-04  4.1096E-04  4.1096E-04  4.1096E-04  4.1096E-04  4.1096E-04  4.1096E-04  4.1096E-04
       4.1096E-04  4.1096E-04  4.1096E-04  4.1096E-04  4.1096E-04  4.1096E-04  4.1096E-04  4.1096E-04  4.1096E-04  4.1096E-04
       4.1096E-04  4.1096E-04  4.1096E-04  4.1096E-04  4.1096E-04  4.1096E-04  4.1096E-04  4.1096E-04  4.1096E-04  4.1096E-04
       4.1096E-04  4.1096E-04  4.1096E-04  4.1096E-04  4.1096E-04  4.1096E-04  4.1096E-04  4.1096E-04  4.1096E-04  4.1096E-04
       4.1096E-04  4.1096E-04  4.1096E-04  4.1096E-04  4.1096E-04  4.1096E-04  4.1096E-04  4.1096E-04  4.1096E-04  4.1096E-04
       4.1096E-04  4.1096E-04  4.1096E-04  4.1096E-04  4.1096E-04  4.1096E-04  4.1096E-04  4.1096E-04  4.1096E-04  4.1096E-04
       4.1096E-04  4.1096E-04  4.1096E-04  4.1096E-04  4.1096E-04  4.1096E-04  4.1096E-04  4.1096E-04  4.1096E-04  4.1096E-04
       4.1096E-04  4.1096E-04  4.1096E-04  4.1096E-04  4.1096E-04  4.1096E-04  4.1096E-04  4.1096E-04  4.1096E-04  4.1096E-04
       4.1096E-04  4.1096E-04  4.1096E-04  4.1096E-04  4.1096E-04  4.1096E-04  4.1096E-04  4.1096E-04  4.1096E-04  4.1096E-04
       4.1096E-04  4.1096E-04  4.1096E-04  4.1096E-04  4.1096E-04  4.1096E-04  4.1096E-04  4.1096E-04  4.1096E-04  4.1096E-04
       4.1096E-04  4.1096E-04  4.1096E-04  4.1096E-04  4.1096E-04  4.1096E-04  4.1096E-04  4.1096E-04  4.1096E-04  4.1096E-04
       4.1096E-04  4.1096E-04  4.1096E-04  4.1096E-04  4.1096E-04  4.1096E-04
  19   4.1096E-04  4.1096E-04  4.1096E-04  4.1096E-04  4.1096E-04  4.1096E-04  4.1096E-04  4.1096E-04  4.1096E-04  4.1096E-04
       4.1096E-04  4.1096E-04  4.1096E-04  4.1096E-04  4.1096E-04  4.1096E-04  4.1096E-04  4.1096E-04  4.1096E-04  4.1096E-04
       4.1096E-04  4.1096E-04  4.1096E-04  4.1096E-04  4.1096E-04  4.1096E-04  4.1096E-04  4.1096E-04  4.1096E-04  4.1096E-04
       4.1096E-04  4.1096E-04  4.1096E-04  4.1096E-04  4.1096E-04  4.1096E-04  4.1096E-04  4.1096E-04  4.1096E-04  4.1096E-04
       4.1096E-04  4.1096E-04  4.1096E-04  4.1096E-04  4.1096E-04  4.1096E-04  4.1096E-04  4.1096E-04  4.1096E-04  4.1096E-04
       4.1096E-04  4.1096E-04  4.1096E-04  4.1096E-04  4.1096E-04  4.1096E-04  4.1096E-04  4.1096E-04  4.1096E-04  4.1096E-04
       4.1096E-04  4.1096E-04  4.1096E-04  4.1096E-04  4.1096E-04  4.1096E-04  4.1096E-04  4.1096E-04  4.1096E-04  4.1096E-04
       4.1096E-04  4.1096E-04  4.1096E-04  4.1096E-04  4.1096E-04  4.1096E-04  4.1096E-04  4.1096E-04  4.1096E-04  4.1096E-04
       4.1096E-04  4.1096E-04  4.1096E-04  4.1096E-04  4.1096E-04  4.1096E-04  4.1096E-04  4.1096E-04  4.1096E-04  4.1096E-04
       4.1096E-04  4.1096E-04  4.1096E-04  4.1096E-04  4.1096E-04  4.1096E-04  4.1096E-04  4.1096E-04  4.1096E-04  4.1096E-04
       4.1096E-04  4.1096E-04  4.1096E-04  4.1096E-04  4.1096E-04  4.1096E-04  4.1096E-04  4.1096E-04  4.1096E-04  4.1096E-04
       4.1096E-04  4.1096E-04  4.1096E-04  4.1096E-04  4.1096E-04  4.1096E-04  4.1096E-04  4.1096E-04  4.1096E-04  4.1096E-04
       4.1096E-04  4.1096E-04  4.1096E-04  4.1096E-04  4.1096E-04  4.1096E-04  4.1096E-04  4.1096E-04  4.1096E-04  4.1096E-04
       4.1096E-04  4.1096E-04  4.1096E-04  4.1096E-04  4.1096E-04  4.1096E-04  4.1096E-04  4.1096E-04  4.1096E-04  4.1096E-04
       4.1096E-04  4.1096E-04  4.1096E-04  4.1096E-04  4.1096E-04  4.1096E-04  4.1096E-04  4.1096E-04  4.1096E-04  4.1096E-04
       4.1096E-04  4.1096E-04  4.1096E-04  4.1096E-04  4.1096E-04  4.1096E-04  4.1096E-04  4.1096E-04  4.1096E-04  4.1096E-04
       4.1096E-04  4.1096E-04  4.1096E-04  4.1096E-04  4.1096E-04  4.1096E-04  4.1096E-04  4.1096E-04  4.1096E-04  4.1096E-04
       4.1096E-04  4.1096E-04  4.1096E-04  4.1096E-04  4.1096E-04  4.1096E-04  4.1096E-04  4.1096E-04  4.1096E-04  4.1096E-04
       4.1096E-04  4.1096E-04  4.1096E-04  4.1096E-04  4.1096E-04  4.1096E-04
  20   4.1096E-04  4.1096E-04  4.1096E-04  4.1096E-04  4.1096E-04  4.1096E-04  4.1096E-04  4.1096E-04  4.1096E-04  4.1096E-04
       4.1096E-04  4.1096E-04  4.1096E-04  4.1096E-04  4.1096E-04  4.1096E-04  4.1096E-04  4.1096E-04  4.1096E-04  4.1096E-04
       4.1096E-04  4.1096E-04  4.1096E-04  4.1096E-04  4.1096E-04  4.1096E-04  4.1096E-04  4.1096E-04  4.1096E-04  4.1096E-04
       4.1096E-04  4.1096E-04  4.1096E-04  4.1096E-04  4.1096E-04  4.1096E-04  4.1096E-04  4.1096E-04  4.1096E-04  4.1096E-04
       4.1096E-04  4.1096E-04  4.1096E-04  4.1096E-04  4.1096E-04  4.1096E-04  4.1096E-04  4.1096E-04  4.1096E-04  4.1096E-04
       4.1096E-04  4.1096E-04  4.1096E-04  4.1096E-04  4.1096E-04  4.1096E-04  4.1096E-04  4.1096E-04  4.1096E-04  4.1096E-04
       4.1096E-04  4.1096E-04  4.1096E-04  4.1096E-04  4.1096E-04  4.1096E-04  4.1096E-04  4.1096E-04  4.1096E-04  4.1096E-04
       4.1096E-04  4.1096E-04  4.1096E-04  4.1096E-04  4.1096E-04  4.1096E-04  4.1096E-04  4.1096E-04  4.1096E-04  4.1096E-04
       4.1096E-04  4.1096E-04  4.1096E-04  4.1096E-04  4.1096E-04  4.1096E-04  4.1096E-04  4.1096E-04  4.1096E-04  4.1096E-04
       4.1096E-04  4.1096E-04  4.1096E-04  4.1096E-04  4.1096E-04  4.1096E-04  4.1096E-04  4.1096E-04  4.1096E-04  4.1096E-04
       4.1096E-04  4.1096E-04  4.1096E-04  4.1096E-04  4.1096E-04  4.1096E-04  4.1096E-04  4.1096E-04  4.1096E-04  4.1096E-04
       4.1096E-04  4.1096E-04  4.1096E-04  4.1096E-04  4.1096E-04  4.1096E-04  4.1096E-04  4.1096E-04  4.1096E-04  4.1096E-04
       4.1096E-04  4.1096E-04  4.1096E-04  4.1096E-04  4.1096E-04  4.1096E-04  4.1096E-04  4.1096E-04  4.1096E-04  4.1096E-04
       4.1096E-04  4.1096E-04  4.1096E-04  4.1096E-04  4.1096E-04  4.1096E-04  4.1096E-04  4.1096E-04  4.1096E-04  4.1096E-04
       4.1096E-04  4.1096E-04  4.1096E-04  4.1096E-04  4.1096E-04  4.1096E-04  4.1096E-04  4.1096E-04  4.1096E-04  4.1096E-04
       4.1096E-04  4.1096E-04  4.1096E-04  4.1096E-04  4.1096E-04  4.1096E-04  4.1096E-04  4.1096E-04  4.1096E-04  4.1096E-04
       4.1096E-04  4.1096E-04  4.1096E-04  4.1096E-04  4.1096E-04  4.1096E-04  4.1096E-04  4.1096E-04  4.1096E-04  4.1096E-04
       4.1096E-04  4.1096E-04  4.1096E-04  4.1096E-04  4.1096E-04  4.1096E-04  4.1096E-04  4.1096E-04  4.1096E-04  4.1096E-04
       4.1096E-04  4.1096E-04  4.1096E-04  4.1096E-04  4.1096E-04  4.1096E-04
  21   4.1096E-04  4.1096E-04  4.1096E-04  4.1096E-04  4.1096E-04  4.1096E-04  4.1096E-04  4.1096E-04  4.1096E-04  4.1096E-04
       4.1096E-04  4.1096E-04  4.1096E-04  4.1096E-04  4.1096E-04  4.1096E-04  4.1096E-04  4.1096E-04  4.1096E-04  4.1096E-04
       4.1096E-04  4.1096E-04  4.1096E-04  4.1096E-04  4.1096E-04  4.1096E-04  4.1096E-04  4.1096E-04  4.1096E-04  4.1096E-04
       4.1096E-04  4.1096E-04  4.1096E-04  4.1096E-04  4.1096E-04  4.1096E-04  4.1096E-04  4.1096E-04  4.1096E-04  4.1096E-04
       4.1096E-04  4.1096E-04  4.1096E-04  4.1096E-04  4.1096E-04  4.1096E-04  4.1096E-04  4.1096E-04  4.1096E-04  4.1096E-04
       4.1096E-04  4.1096E-04  4.1096E-04  4.1096E-04  4.1096E-04  4.1096E-04  4.1096E-04  4.1096E-04  4.1096E-04  4.1096E-04
       4.1096E-04  4.1096E-04  4.1096E-04  4.1096E-04  4.1096E-04  4.1096E-04  4.1096E-04  4.1096E-04  4.1096E-04  4.1096E-04
       4.1096E-04  4.1096E-04  4.1096E-04  4.1096E-04  4.1096E-04  4.1096E-04  4.1096E-04  4.1096E-04  4.1096E-04  4.1096E-04
       4.1096E-04  4.1096E-04  4.1096E-04  4.1096E-04  4.1096E-04  4.1096E-04  4.1096E-04  4.1096E-04  4.1096E-04  4.1096E-04
       4.1096E-04  4.1096E-04  4.1096E-04  4.1096E-04  4.1096E-04  4.1096E-04  4.1096E-04  4.1096E-04  4.1096E-04  4.1096E-04
       4.1096E-04  4.1096E-04  4.1096E-04  4.1096E-04  4.1096E-04  4.1096E-04  4.1096E-04  4.1096E-04  4.1096E-04  4.1096E-04
       4.1096E-04  4.1096E-04  4.1096E-04  4.1096E-04  4.1096E-04  4.1096E-04  4.1096E-04  4.1096E-04  4.1096E-04  4.1096E-04
       4.1096E-04  4.1096E-04  4.1096E-04  4.1096E-04  4.1096E-04  4.1096E-04  4.1096E-04  4.1096E-04  4.1096E-04  4.1096E-04
       4.1096E-04  4.1096E-04  4.1096E-04  4.1096E-04  4.1096E-04  4.1096E-04  4.1096E-04  4.1096E-04  4.1096E-04  4.1096E-04
       4.1096E-04  4.1096E-04  4.1096E-04  4.1096E-04  4.1096E-04  4.1096E-04  4.1096E-04  4.1096E-04  4.1096E-04  4.1096E-04
       4.1096E-04  4.1096E-04  4.1096E-04  4.1096E-04  4.1096E-04  4.1096E-04  4.1096E-04  4.1096E-04  4.1096E-04  4.1096E-04
       4.1096E-04  4.1096E-04  4.1096E-04  4.1096E-04  4.1096E-04  4.1096E-04  4.1096E-04  4.1096E-04  4.1096E-04  4.1096E-04
       4.1096E-04  4.1096E-04  4.1096E-04  4.1096E-04  4.1096E-04  4.1096E-04  4.1096E-04  4.1096E-04  4.1096E-04  4.1096E-04
       4.1096E-04  4.1096E-04  4.1096E-04  4.1096E-04  4.1096E-04  4.1096E-04
  22   4.1096E-04  4.1096E-04  4.1096E-04  4.1096E-04  4.1096E-04  4.1096E-04  4.1096E-04  4.1096E-04  4.1096E-04  4.1096E-04
       4.1096E-04  4.1096E-04  4.1096E-04  4.1096E-04  4.1096E-04  4.1096E-04  4.1096E-04  4.1096E-04  4.1096E-04  4.1096E-04
       4.1096E-04  4.1096E-04  4.1096E-04  4.1096E-04  4.1096E-04  4.1096E-04  4.1096E-04  4.1096E-04  4.1096E-04  4.1096E-04
       4.1096E-04  4.1096E-04  4.1096E-04  4.1096E-04  4.1096E-04  4.1096E-04  4.1096E-04  4.1096E-04  4.1096E-04  4.1096E-04
       4.1096E-04  4.1096E-04  4.1096E-04  4.1096E-04  4.1096E-04  4.1096E-04  4.1096E-04  4.1096E-04  4.1096E-04  4.1096E-04
       4.1096E-04  4.1096E-04  4.1096E-04  4.1096E-04  4.1096E-04  4.1096E-04  4.1096E-04  4.1096E-04  4.1096E-04  4.1096E-04
       4.1096E-04  4.1096E-04  4.1096E-04  4.1096E-04  4.1096E-04  4.1096E-04  4.1096E-04  4.1096E-04  4.1096E-04  4.1096E-04
       4.1096E-04  4.1096E-04  4.1096E-04  4.1096E-04  4.1096E-04  4.1096E-04  4.1096E-04  4.1096E-04  4.1096E-04  4.1096E-04
       4.1096E-04  4.1096E-04  4.1096E-04  4.1096E-04  4.1096E-04  4.1096E-04  4.1096E-04  4.1096E-04  4.1096E-04  4.1096E-04
       4.1096E-04  4.1096E-04  4.1096E-04  4.1096E-04  4.1096E-04  4.1096E-04  4.1096E-04  4.1096E-04  4.1096E-04  4.1096E-04
       4.1096E-04  4.1096E-04  4.1096E-04  4.1096E-04  4.1096E-04  4.1096E-04  4.1096E-04  4.1096E-04  4.1096E-04  4.1096E-04
       4.1096E-04  4.1096E-04  4.1096E-04  4.1096E-04  4.1096E-04  4.1096E-04  4.1096E-04  4.1096E-04  4.1096E-04  4.1096E-04
       4.1096E-04  4.1096E-04  4.1096E-04  4.1096E-04  4.1096E-04  4.1096E-04  4.1096E-04  4.1096E-04  4.1096E-04  4.1096E-04
       4.1096E-04  4.1096E-04  4.1096E-04  4.1096E-04  4.1096E-04  4.1096E-04  4.1096E-04  4.1096E-04  4.1096E-04  4.1096E-04
       4.1096E-04  4.1096E-04  4.1096E-04  4.1096E-04  4.1096E-04  4.1096E-04  4.1096E-04  4.1096E-04  4.1096E-04  4.1096E-04
       4.1096E-04  4.1096E-04  4.1096E-04  4.1096E-04  4.1096E-04  4.1096E-04  4.1096E-04  4.1096E-04  4.1096E-04  4.1096E-04
       4.1096E-04  4.1096E-04  4.1096E-04  4.1096E-04  4.1096E-04  4.1096E-04  4.1096E-04  4.1096E-04  4.1096E-04  4.1096E-04
       4.1096E-04  4.1096E-04  4.1096E-04  4.1096E-04  4.1096E-04  4.1096E-04  4.1096E-04  4.1096E-04  4.1096E-04  4.1096E-04
       4.1096E-04  4.1096E-04  4.1096E-04  4.1096E-04  4.1096E-04  4.1096E-04
  23   4.1096E-04  4.1096E-04  4.1096E-04  4.1096E-04  4.1096E-04  4.1096E-04  4.1096E-04  4.1096E-04  4.1096E-04  4.1096E-04
       4.1096E-04  4.1096E-04  4.1096E-04  4.1096E-04  4.1096E-04  4.1096E-04  4.1096E-04  4.1096E-04  4.1096E-04  4.1096E-04
       4.1096E-04  4.1096E-04  4.1096E-04  4.1096E-04  4.1096E-04  4.1096E-04  4.1096E-04  4.1096E-04  4.1096E-04  4.1096E-04
       4.1096E-04  4.1096E-04  4.1096E-04  4.1096E-04  4.1096E-04  4.1096E-04  4.1096E-04  4.1096E-04  4.1096E-04  4.1096E-04
       4.1096E-04  4.1096E-04  4.1096E-04  4.1096E-04  4.1096E-04  4.1096E-04  4.1096E-04  4.1096E-04  4.1096E-04  4.1096E-04
       4.1096E-04  4.1096E-04  4.1096E-04  4.1096E-04  4.1096E-04  4.1096E-04  4.1096E-04  4.1096E-04  4.1096E-04  4.1096E-04
       4.1096E-04  4.1096E-04  4.1096E-04  4.1096E-04  4.1096E-04  4.1096E-04  4.1096E-04  4.1096E-04  4.1096E-04  4.1096E-04
       4.1096E-04  4.1096E-04  4.1096E-04  4.1096E-04  4.1096E-04  4.1096E-04  4.1096E-04  4.1096E-04  4.1096E-04  4.1096E-04
       4.1096E-04  4.1096E-04  4.1096E-04  4.1096E-04  4.1096E-04  4.1096E-04  4.1096E-04  4.1096E-04  4.1096E-04  4.1096E-04
       4.1096E-04  4.1096E-04  4.1096E-04  4.1096E-04  4.1096E-04  4.1096E-04  4.1096E-04  4.1096E-04  4.1096E-04  4.1096E-04
       4.1096E-04  4.1096E-04  4.1096E-04  4.1096E-04  4.1096E-04  4.1096E-04  4.1096E-04  4.1096E-04  4.1096E-04  4.1096E-04
       4.1096E-04  4.1096E-04  4.1096E-04  4.1096E-04  4.1096E-04  4.1096E-04  4.1096E-04  4.1096E-04  4.1096E-04  4.1096E-04
       4.1096E-04  4.1096E-04  4.1096E-04  4.1096E-04  4.1096E-04  4.1096E-04  4.1096E-04  4.1096E-04  4.1096E-04  4.1096E-04
       4.1096E-04  4.1096E-04  4.1096E-04  4.1096E-04  4.1096E-04  4.1096E-04  4.1096E-04  4.1096E-04  4.1096E-04  4.1096E-04
       4.1096E-04  4.1096E-04  4.1096E-04  4.1096E-04  4.1096E-04  4.1096E-04  4.1096E-04  4.1096E-04  4.1096E-04  4.1096E-04
       4.1096E-04  4.1096E-04  4.1096E-04  4.1096E-04  4.1096E-04  4.1096E-04  4.1096E-04  4.1096E-04  4.1096E-04  4.1096E-04
       4.1096E-04  4.1096E-04  4.1096E-04  4.1096E-04  4.1096E-04  4.1096E-04  4.1096E-04  4.1096E-04  4.1096E-04  4.1096E-04
       4.1096E-04  4.1096E-04  4.1096E-04  4.1096E-04  4.1096E-04  4.1096E-04  4.1096E-04  4.1096E-04  4.1096E-04  4.1096E-04
       4.1096E-04  4.1096E-04  4.1096E-04  4.1096E-04  4.1096E-04  4.1096E-04
  24   4.1096E-04  4.1096E-04  4.1096E-04  4.1096E-04  4.1096E-04  4.1096E-04  4.1096E-04  4.1096E-04  4.1096E-04  4.1096E-04
       4.1096E-04  4.1096E-04  4.1096E-04  4.1096E-04  4.1096E-04  4.1096E-04  4.1096E-04  4.1096E-04  4.1096E-04  4.1096E-04
       4.1096E-04  4.1096E-04  4.1096E-04  4.1096E-04  4.1096E-04  4.1096E-04  4.1096E-04  4.1096E-04  4.1096E-04  4.1096E-04
       4.1096E-04  4.1096E-04  4.1096E-04  4.1096E-04  4.1096E-04  4.1096E-04  4.1096E-04  4.1096E-04  4.1096E-04  4.1096E-04
       4.1096E-04  4.1096E-04  4.1096E-04  4.1096E-04  4.1096E-04  4.1096E-04  4.1096E-04  4.1096E-04  4.1096E-04  4.1096E-04
       4.1096E-04  4.1096E-04  4.1096E-04  4.1096E-04  4.1096E-04  4.1096E-04  4.1096E-04  4.1096E-04  4.1096E-04  4.1096E-04
       4.1096E-04  4.1096E-04  4.1096E-04  4.1096E-04  4.1096E-04  4.1096E-04  4.1096E-04  4.1096E-04  4.1096E-04  4.1096E-04
       4.1096E-04  4.1096E-04  4.1096E-04  4.1096E-04  4.1096E-04  4.1096E-04  4.1096E-04  4.1096E-04  4.1096E-04  4.1096E-04
       4.1096E-04  4.1096E-04  4.1096E-04  4.1096E-04  4.1096E-04  4.1096E-04  4.1096E-04  4.1096E-04  4.1096E-04  4.1096E-04
       4.1096E-04  4.1096E-04  4.1096E-04  4.1096E-04  4.1096E-04  4.1096E-04  4.1096E-04  4.1096E-04  4.1096E-04  4.1096E-04
       4.1096E-04  4.1096E-04  4.1096E-04  4.1096E-04  4.1096E-04  4.1096E-04  4.1096E-04  4.1096E-04  4.1096E-04  4.1096E-04
       4.1096E-04  4.1096E-04  4.1096E-04  4.1096E-04  4.1096E-04  4.1096E-04  4.1096E-04  4.1096E-04  4.1096E-04  4.1096E-04
       4.1096E-04  4.1096E-04  4.1096E-04  4.1096E-04  4.1096E-04  4.1096E-04  4.1096E-04  4.1096E-04  4.1096E-04  4.1096E-04
       4.1096E-04  4.1096E-04  4.1096E-04  4.1096E-04  4.1096E-04  4.1096E-04  4.1096E-04  4.1096E-04  4.1096E-04  4.1096E-04
       4.1096E-04  4.1096E-04  4.1096E-04  4.1096E-04  4.1096E-04  4.1096E-04  4.1096E-04  4.1096E-04  4.1096E-04  4.1096E-04
       4.1096E-04  4.1096E-04  4.1096E-04  4.1096E-04  4.1096E-04  4.1096E-04  4.1096E-04  4.1096E-04  4.1096E-04  4.1096E-04
       4.1096E-04  4.1096E-04  4.1096E-04  4.1096E-04  4.1096E-04  4.1096E-04  4.1096E-04  4.1096E-04  4.1096E-04  4.1096E-04
       4.1096E-04  4.1096E-04  4.1096E-04  4.1096E-04  4.1096E-04  4.1096E-04  4.1096E-04  4.1096E-04  4.1096E-04  4.1096E-04
       4.1096E-04  4.1096E-04  4.1096E-04  4.1096E-04  4.1096E-04  4.1096E-04
  25   4.1096E-04  4.1096E-04  4.1096E-04  4.1096E-04  4.1096E-04  4.1096E-04  4.1096E-04  4.1096E-04  4.1096E-04  4.1096E-04
       4.1096E-04  4.1096E-04  4.1096E-04  4.1096E-04  4.1096E-04  4.1096E-04  4.1096E-04  4.1096E-04  4.1096E-04  4.1096E-04
       4.1096E-04  4.1096E-04  4.1096E-04  4.1096E-04  4.1096E-04  4.1096E-04  4.1096E-04  4.1096E-04  4.1096E-04  4.1096E-04
       4.1096E-04  4.1096E-04  4.1096E-04  4.1096E-04  4.1096E-04  4.1096E-04  4.1096E-04  4.1096E-04  4.1096E-04  4.1096E-04
       4.1096E-04  4.1096E-04  4.1096E-04  4.1096E-04  4.1096E-04  4.1096E-04  4.1096E-04  4.1096E-04  4.1096E-04  4.1096E-04
       4.1096E-04  4.1096E-04  4.1096E-04  4.1096E-04  4.1096E-04  4.1096E-04  4.1096E-04  4.1096E-04  4.1096E-04  4.1096E-04
       4.1096E-04  4.1096E-04  4.1096E-04  4.1096E-04  4.1096E-04  4.1096E-04  4.1096E-04  4.1096E-04  4.1096E-04  4.1096E-04
       4.1096E-04  4.1096E-04  4.1096E-04  4.1096E-04  4.1096E-04  4.1096E-04  4.1096E-04  4.1096E-04  4.1096E-04  4.1096E-04
       4.1096E-04  4.1096E-04  4.1096E-04  4.1096E-04  4.1096E-04  4.1096E-04  4.1096E-04  4.1096E-04  4.1096E-04  4.1096E-04
       4.1096E-04  4.1096E-04  4.1096E-04  4.1096E-04  4.1096E-04  4.1096E-04  4.1096E-04  4.1096E-04  4.1096E-04  4.1096E-04
       4.1096E-04  4.1096E-04  4.1096E-04  4.1096E-04  4.1096E-04  4.1096E-04  4.1096E-04  4.1096E-04  4.1096E-04  4.1096E-04
       4.1096E-04  4.1096E-04  4.1096E-04  4.1096E-04  4.1096E-04  4.1096E-04  4.1096E-04  4.1096E-04  4.1096E-04  4.1096E-04
       4.1096E-04  4.1096E-04  4.1096E-04  4.1096E-04  4.1096E-04  4.1096E-04  4.1096E-04  4.1096E-04  4.1096E-04  4.1096E-04
       4.1096E-04  4.1096E-04  4.1096E-04  4.1096E-04  4.1096E-04  4.1096E-04  4.1096E-04  4.1096E-04  4.1096E-04  4.1096E-04
       4.1096E-04  4.1096E-04  4.1096E-04  4.1096E-04  4.1096E-04  4.1096E-04  4.1096E-04  4.1096E-04  4.1096E-04  4.1096E-04
       4.1096E-04  4.1096E-04  4.1096E-04  4.1096E-04  4.1096E-04  4.1096E-04  4.1096E-04  4.1096E-04  4.1096E-04  4.1096E-04
       4.1096E-04  4.1096E-04  4.1096E-04  4.1096E-04  4.1096E-04  4.1096E-04  4.1096E-04  4.1096E-04  4.1096E-04  4.1096E-04
       4.1096E-04  4.1096E-04  4.1096E-04  4.1096E-04  4.1096E-04  4.1096E-04  4.1096E-04  4.1096E-04  4.1096E-04  4.1096E-04
       4.1096E-04  4.1096E-04  4.1096E-04  4.1096E-04  4.1096E-04  4.1096E-04
  26   4.1096E-04  4.1096E-04  4.1096E-04  4.1096E-04  4.1096E-04  4.1096E-04  4.1096E-04  4.1096E-04  4.1096E-04  4.1096E-04
       4.1096E-04  4.1096E-04  4.1096E-04  4.1096E-04  4.1096E-04  4.1096E-04  4.1096E-04  4.1096E-04  4.1096E-04  4.1096E-04
       4.1096E-04  4.1096E-04  4.1096E-04  4.1096E-04  4.1096E-04  4.1096E-04  4.1096E-04  4.1096E-04  4.1096E-04  4.1096E-04
       4.1096E-04  4.1096E-04  4.1096E-04  4.1096E-04  4.1096E-04  4.1096E-04  4.1096E-04  4.1096E-04  4.1096E-04  4.1096E-04
       4.1096E-04  4.1096E-04  4.1096E-04  4.1096E-04  4.1096E-04  4.1096E-04  4.1096E-04  4.1096E-04  4.1096E-04  4.1096E-04
       4.1096E-04  4.1096E-04  4.1096E-04  4.1096E-04  4.1096E-04  4.1096E-04  4.1096E-04  4.1096E-04  4.1096E-04  4.1096E-04
       4.1096E-04  4.1096E-04  4.1096E-04  4.1096E-04  4.1096E-04  4.1096E-04  4.1096E-04  4.1096E-04  4.1096E-04  4.1096E-04
       4.1096E-04  4.1096E-04  4.1096E-04  4.1096E-04  4.1096E-04  4.1096E-04  4.1096E-04  4.1096E-04  4.1096E-04  4.1096E-04
       4.1096E-04  4.1096E-04  4.1096E-04  4.1096E-04  4.1096E-04  4.1096E-04  4.1096E-04  4.1096E-04  4.1096E-04  4.1096E-04
       4.1096E-04  4.1096E-04  4.1096E-04  4.1096E-04  4.1096E-04  4.1096E-04  4.1096E-04  4.1096E-04  4.1096E-04  4.1096E-04
       4.1096E-04  4.1096E-04  4.1096E-04  4.1096E-04  4.1096E-04  4.1096E-04  4.1096E-04  4.1096E-04  4.1096E-04  4.1096E-04
       4.1096E-04  4.1096E-04  4.1096E-04  4.1096E-04  4.1096E-04  4.1096E-04  4.1096E-04  4.1096E-04  4.1096E-04  4.1096E-04
       4.1096E-04  4.1096E-04  4.1096E-04  4.1096E-04  4.1096E-04  4.1096E-04  4.1096E-04  4.1096E-04  4.1096E-04  4.1096E-04
       4.1096E-04  4.1096E-04  4.1096E-04  4.1096E-04  4.1096E-04  4.1096E-04  4.1096E-04  4.1096E-04  4.1096E-04  4.1096E-04
       4.1096E-04  4.1096E-04  4.1096E-04  4.1096E-04  4.1096E-04  4.1096E-04  4.1096E-04  4.1096E-04  4.1096E-04  4.1096E-04
       4.1096E-04  4.1096E-04  4.1096E-04  4.1096E-04  4.1096E-04  4.1096E-04  4.1096E-04  4.1096E-04  4.1096E-04  4.1096E-04
       4.1096E-04  4.1096E-04  4.1096E-04  4.1096E-04  4.1096E-04  4.1096E-04  4.1096E-04  4.1096E-04  4.1096E-04  4.1096E-04
       4.1096E-04  4.1096E-04  4.1096E-04  4.1096E-04  4.1096E-04  4.1096E-04  4.1096E-04  4.1096E-04  4.1096E-04  4.1096E-04
       4.1096E-04  4.1096E-04  4.1096E-04  4.1096E-04  4.1096E-04  4.1096E-04
  27   4.1096E-04  4.1096E-04  4.1096E-04  4.1096E-04  4.1096E-04  4.1096E-04  4.1096E-04  4.1096E-04  4.1096E-04  4.1096E-04
       4.1096E-04  4.1096E-04  4.1096E-04  4.1096E-04  4.1096E-04  4.1096E-04  4.1096E-04  4.1096E-04  4.1096E-04  4.1096E-04
       4.1096E-04  4.1096E-04  4.1096E-04  4.1096E-04  4.1096E-04  4.1096E-04  4.1096E-04  4.1096E-04  4.1096E-04  4.1096E-04
       4.1096E-04  4.1096E-04  4.1096E-04  4.1096E-04  4.1096E-04  4.1096E-04  4.1096E-04  4.1096E-04  4.1096E-04  4.1096E-04
       4.1096E-04  4.1096E-04  4.1096E-04  4.1096E-04  4.1096E-04  4.1096E-04  4.1096E-04  4.1096E-04  4.1096E-04  4.1096E-04
       4.1096E-04  4.1096E-04  4.1096E-04  4.1096E-04  4.1096E-04  4.1096E-04  4.1096E-04  4.1096E-04  4.1096E-04  4.1096E-04
       4.1096E-04  4.1096E-04  4.1096E-04  4.1096E-04  4.1096E-04  4.1096E-04  4.1096E-04  4.1096E-04  4.1096E-04  4.1096E-04
       4.1096E-04  4.1096E-04  4.1096E-04  4.1096E-04  4.1096E-04  4.1096E-04  4.1096E-04  4.1096E-04  4.1096E-04  4.1096E-04
       4.1096E-04  4.1096E-04  4.1096E-04  4.1096E-04  4.1096E-04  4.1096E-04  4.1096E-04  4.1096E-04  4.1096E-04  4.1096E-04
       4.1096E-04  4.1096E-04  4.1096E-04  4.1096E-04  4.1096E-04  4.1096E-04  4.1096E-04  4.1096E-04  4.1096E-04  4.1096E-04
       4.1096E-04  4.1096E-04  4.1096E-04  4.1096E-04  4.1096E-04  4.1096E-04  4.1096E-04  4.1096E-04  4.1096E-04  4.1096E-04
       4.1096E-04  4.1096E-04  4.1096E-04  4.1096E-04  4.1096E-04  4.1096E-04  4.1096E-04  4.1096E-04  4.1096E-04  4.1096E-04
       4.1096E-04  4.1096E-04  4.1096E-04  4.1096E-04  4.1096E-04  4.1096E-04  4.1096E-04  4.1096E-04  4.1096E-04  4.1096E-04
       4.1096E-04  4.1096E-04  4.1096E-04  4.1096E-04  4.1096E-04  4.1096E-04  4.1096E-04  4.1096E-04  4.1096E-04  4.1096E-04
       4.1096E-04  4.1096E-04  4.1096E-04  4.1096E-04  4.1096E-04  4.1096E-04  4.1096E-04  4.1096E-04  4.1096E-04  4.1096E-04
       4.1096E-04  4.1096E-04  4.1096E-04  4.1096E-04  4.1096E-04  4.1096E-04  4.1096E-04  4.1096E-04  4.1096E-04  4.1096E-04
       4.1096E-04  4.1096E-04  4.1096E-04  4.1096E-04  4.1096E-04  4.1096E-04  4.1096E-04  4.1096E-04  4.1096E-04  4.1096E-04
       4.1096E-04  4.1096E-04  4.1096E-04  4.1096E-04  4.1096E-04  4.1096E-04  4.1096E-04  4.1096E-04  4.1096E-04  4.1096E-04
       4.1096E-04  4.1096E-04  4.1096E-04  4.1096E-04  4.1096E-04  4.1096E-04
  28   4.1096E-04  4.1096E-04  4.1096E-04  4.1096E-04  4.1096E-04  4.1096E-04  4.1096E-04  4.1096E-04  4.1096E-04  4.1096E-04
       4.1096E-04  4.1096E-04  4.1096E-04  4.1096E-04  4.1096E-04  4.1096E-04  4.1096E-04  4.1096E-04  4.1096E-04  4.1096E-04
       4.1096E-04  4.1096E-04  4.1096E-04  4.1096E-04  4.1096E-04  4.1096E-04  4.1096E-04  4.1096E-04  4.1096E-04  4.1096E-04
       4.1096E-04  4.1096E-04  4.1096E-04  4.1096E-04  4.1096E-04  4.1096E-04  4.1096E-04  4.1096E-04  4.1096E-04  4.1096E-04
       4.1096E-04  4.1096E-04  4.1096E-04  4.1096E-04  4.1096E-04  4.1096E-04  4.1096E-04  4.1096E-04  4.1096E-04  4.1096E-04
       4.1096E-04  4.1096E-04  4.1096E-04  4.1096E-04  4.1096E-04  4.1096E-04  4.1096E-04  4.1096E-04  4.1096E-04  4.1096E-04
       4.1096E-04  4.1096E-04  4.1096E-04  4.1096E-04  4.1096E-04  4.1096E-04  4.1096E-04  4.1096E-04  4.1096E-04  4.1096E-04
       4.1096E-04  4.1096E-04  4.1096E-04  4.1096E-04  4.1096E-04  4.1096E-04  4.1096E-04  4.1096E-04  4.1096E-04  4.1096E-04
       4.1096E-04  4.1096E-04  4.1096E-04  4.1096E-04  4.1096E-04  4.1096E-04  4.1096E-04  4.1096E-04  4.1096E-04  4.1096E-04
       4.1096E-04  4.1096E-04  4.1096E-04  4.1096E-04  4.1096E-04  4.1096E-04  4.1096E-04  4.1096E-04  4.1096E-04  4.1096E-04
       4.1096E-04  4.1096E-04  4.1096E-04  4.1096E-04  4.1096E-04  4.1096E-04  4.1096E-04  4.1096E-04  4.1096E-04  4.1096E-04
       4.1096E-04  4.1096E-04  4.1096E-04  4.1096E-04  4.1096E-04  4.1096E-04  4.1096E-04  4.1096E-04  4.1096E-04  4.1096E-04
       4.1096E-04  4.1096E-04  4.1096E-04  4.1096E-04  4.1096E-04  4.1096E-04  4.1096E-04  4.1096E-04  4.1096E-04  4.1096E-04
       4.1096E-04  4.1096E-04  4.1096E-04  4.1096E-04  4.1096E-04  4.1096E-04  4.1096E-04  4.1096E-04  4.1096E-04  4.1096E-04
       4.1096E-04  4.1096E-04  4.1096E-04  4.1096E-04  4.1096E-04  4.1096E-04  4.1096E-04  4.1096E-04  4.1096E-04  4.1096E-04
       4.1096E-04  4.1096E-04  4.1096E-04  4.1096E-04  4.1096E-04  4.1096E-04  4.1096E-04  4.1096E-04  4.1096E-04  4.1096E-04
       4.1096E-04  4.1096E-04  4.1096E-04  4.1096E-04  4.1096E-04  4.1096E-04  4.1096E-04  4.1096E-04  4.1096E-04  4.1096E-04
       4.1096E-04  4.1096E-04  4.1096E-04  4.1096E-04  4.1096E-04  4.1096E-04  4.1096E-04  4.1096E-04  4.1096E-04  4.1096E-04
       4.1096E-04  4.1096E-04  4.1096E-04  4.1096E-04  4.1096E-04  4.1096E-04
  29   4.1096E-04  4.1096E-04  4.1096E-04  4.1096E-04  4.1096E-04  4.1096E-04  4.1096E-04  4.1096E-04  4.1096E-04  4.1096E-04
       4.1096E-04  4.1096E-04  4.1096E-04  4.1096E-04  4.1096E-04  4.1096E-04  4.1096E-04  4.1096E-04  4.1096E-04  4.1096E-04
       4.1096E-04  4.1096E-04  4.1096E-04  4.1096E-04  4.1096E-04  4.1096E-04  4.1096E-04  4.1096E-04  4.1096E-04  4.1096E-04
       4.1096E-04  4.1096E-04  4.1096E-04  4.1096E-04  4.1096E-04  4.1096E-04  4.1096E-04  4.1096E-04  4.1096E-04  4.1096E-04
       4.1096E-04  4.1096E-04  4.1096E-04  4.1096E-04  4.1096E-04  4.1096E-04  4.1096E-04  4.1096E-04  4.1096E-04  4.1096E-04
       4.1096E-04  4.1096E-04  4.1096E-04  4.1096E-04  4.1096E-04  4.1096E-04  4.1096E-04  4.1096E-04  4.1096E-04  4.1096E-04
       4.1096E-04  4.1096E-04  4.1096E-04  4.1096E-04  4.1096E-04  4.1096E-04  4.1096E-04  4.1096E-04  4.1096E-04  4.1096E-04
       4.1096E-04  4.1096E-04  4.1096E-04  4.1096E-04  4.1096E-04  4.1096E-04  4.1096E-04  4.1096E-04  4.1096E-04  4.1096E-04
       4.1096E-04  4.1096E-04  4.1096E-04  4.1096E-04  4.1096E-04  4.1096E-04  4.1096E-04  4.1096E-04  4.1096E-04  4.1096E-04
       4.1096E-04  4.1096E-04  4.1096E-04  4.1096E-04  4.1096E-04  4.1096E-04  4.1096E-04  4.1096E-04  4.1096E-04  4.1096E-04
       4.1096E-04  4.1096E-04  4.1096E-04  4.1096E-04  4.1096E-04  4.1096E-04  4.1096E-04  4.1096E-04  4.1096E-04  4.1096E-04
       4.1096E-04  4.1096E-04  4.1096E-04  4.1096E-04  4.1096E-04  4.1096E-04  4.1096E-04  4.1096E-04  4.1096E-04  4.1096E-04
       4.1096E-04  4.1096E-04  4.1096E-04  4.1096E-04  4.1096E-04  4.1096E-04  4.1096E-04  4.1096E-04  4.1096E-04  4.1096E-04
       4.1096E-04  4.1096E-04  4.1096E-04  4.1096E-04  4.1096E-04  4.1096E-04  4.1096E-04  4.1096E-04  4.1096E-04  4.1096E-04
       4.1096E-04  4.1096E-04  4.1096E-04  4.1096E-04  4.1096E-04  4.1096E-04  4.1096E-04  4.1096E-04  4.1096E-04  4.1096E-04
       4.1096E-04  4.1096E-04  4.1096E-04  4.1096E-04  4.1096E-04  4.1096E-04  4.1096E-04  4.1096E-04  4.1096E-04  4.1096E-04
       4.1096E-04  4.1096E-04  4.1096E-04  4.1096E-04  4.1096E-04  4.1096E-04  4.1096E-04  4.1096E-04  4.1096E-04  4.1096E-04
       4.1096E-04  4.1096E-04  4.1096E-04  4.1096E-04  4.1096E-04  4.1096E-04  4.1096E-04  4.1096E-04  4.1096E-04  4.1096E-04
       4.1096E-04  4.1096E-04  4.1096E-04  4.1096E-04  4.1096E-04  4.1096E-04
  30   4.1096E-04  4.1096E-04  4.1096E-04  4.1096E-04  4.1096E-04  4.1096E-04  4.1096E-04  4.1096E-04  4.1096E-04  4.1096E-04
       4.1096E-04  4.1096E-04  4.1096E-04  4.1096E-04  4.1096E-04  4.1096E-04  4.1096E-04  4.1096E-04  4.1096E-04  4.1096E-04
       4.1096E-04  4.1096E-04  4.1096E-04  4.1096E-04  4.1096E-04  4.1096E-04  4.1096E-04  4.1096E-04  4.1096E-04  4.1096E-04
       4.1096E-04  4.1096E-04  4.1096E-04  4.1096E-04  4.1096E-04  4.1096E-04  4.1096E-04  4.1096E-04  4.1096E-04  4.1096E-04
       4.1096E-04  4.1096E-04  4.1096E-04  4.1096E-04  4.1096E-04  4.1096E-04  4.1096E-04  4.1096E-04  4.1096E-04  4.1096E-04
       4.1096E-04  4.1096E-04  4.1096E-04  4.1096E-04  4.1096E-04  4.1096E-04  4.1096E-04  4.1096E-04  4.1096E-04  4.1096E-04
       4.1096E-04  4.1096E-04  4.1096E-04  4.1096E-04  4.1096E-04  4.1096E-04  4.1096E-04  4.1096E-04  4.1096E-04  4.1096E-04
       4.1096E-04  4.1096E-04  4.1096E-04  4.1096E-04  4.1096E-04  4.1096E-04  4.1096E-04  4.1096E-04  4.1096E-04  4.1096E-04
       4.1096E-04  4.1096E-04  4.1096E-04  4.1096E-04  4.1096E-04  4.1096E-04  4.1096E-04  4.1096E-04  4.1096E-04  4.1096E-04
       4.1096E-04  4.1096E-04  4.1096E-04  4.1096E-04  4.1096E-04  4.1096E-04  4.1096E-04  4.1096E-04  4.1096E-04  4.1096E-04
       4.1096E-04  4.1096E-04  4.1096E-04  4.1096E-04  4.1096E-04  4.1096E-04  4.1096E-04  4.1096E-04  4.1096E-04  4.1096E-04
       4.1096E-04  4.1096E-04  4.1096E-04  4.1096E-04  4.1096E-04  4.1096E-04  4.1096E-04  4.1096E-04  4.1096E-04  4.1096E-04
       4.1096E-04  4.1096E-04  4.1096E-04  4.1096E-04  4.1096E-04  4.1096E-04  4.1096E-04  4.1096E-04  4.1096E-04  4.1096E-04
       4.1096E-04  4.1096E-04  4.1096E-04  4.1096E-04  4.1096E-04  4.1096E-04  4.1096E-04  4.1096E-04  4.1096E-04  4.1096E-04
       4.1096E-04  4.1096E-04  4.1096E-04  4.1096E-04  4.1096E-04  4.1096E-04  4.1096E-04  4.1096E-04  4.1096E-04  4.1096E-04
       4.1096E-04  4.1096E-04  4.1096E-04  4.1096E-04  4.1096E-04  4.1096E-04  4.1096E-04  4.1096E-04  4.1096E-04  4.1096E-04
       4.1096E-04  4.1096E-04  4.1096E-04  4.1096E-04  4.1096E-04  4.1096E-04  4.1096E-04  4.1096E-04  4.1096E-04  4.1096E-04
       4.1096E-04  4.1096E-04  4.1096E-04  4.1096E-04  4.1096E-04  4.1096E-04  4.1096E-04  4.1096E-04  4.1096E-04  4.1096E-04
       4.1096E-04  4.1096E-04  4.1096E-04  4.1096E-04  4.1096E-04  4.1096E-04
  31   4.1096E-04  4.1096E-04  4.1096E-04  4.1096E-04  4.1096E-04  4.1096E-04  4.1096E-04  4.1096E-04  4.1096E-04  4.1096E-04
       4.1096E-04  4.1096E-04  4.1096E-04  4.1096E-04  4.1096E-04  4.1096E-04  4.1096E-04  4.1096E-04  4.1096E-04  4.1096E-04
       4.1096E-04  4.1096E-04  4.1096E-04  4.1096E-04  4.1096E-04  4.1096E-04  4.1096E-04  4.1096E-04  4.1096E-04  4.1096E-04
       4.1096E-04  4.1096E-04  4.1096E-04  4.1096E-04  4.1096E-04  4.1096E-04  4.1096E-04  4.1096E-04  4.1096E-04  4.1096E-04
       4.1096E-04  4.1096E-04  4.1096E-04  4.1096E-04  4.1096E-04  4.1096E-04  4.1096E-04  4.1096E-04  4.1096E-04  4.1096E-04
       4.1096E-04  4.1096E-04  4.1096E-04  4.1096E-04  4.1096E-04  4.1096E-04  4.1096E-04  4.1096E-04  4.1096E-04  4.1096E-04
       4.1096E-04  4.1096E-04  4.1096E-04  4.1096E-04  4.1096E-04  4.1096E-04  4.1096E-04  4.1096E-04  4.1096E-04  4.1096E-04
       4.1096E-04  4.1096E-04  4.1096E-04  4.1096E-04  4.1096E-04  4.1096E-04  4.1096E-04  4.1096E-04  4.1096E-04  4.1096E-04
       4.1096E-04  4.1096E-04  4.1096E-04  4.1096E-04  4.1096E-04  4.1096E-04  4.1096E-04  4.1096E-04  4.1096E-04  4.1096E-04
       4.1096E-04  4.1096E-04  4.1096E-04  4.1096E-04  4.1096E-04  4.1096E-04  4.1096E-04  4.1096E-04  4.1096E-04  4.1096E-04
       4.1096E-04  4.1096E-04  4.1096E-04  4.1096E-04  4.1096E-04  4.1096E-04  4.1096E-04  4.1096E-04  4.1096E-04  4.1096E-04
       4.1096E-04  4.1096E-04  4.1096E-04  4.1096E-04  4.1096E-04  4.1096E-04  4.1096E-04  4.1096E-04  4.1096E-04  4.1096E-04
       4.1096E-04  4.1096E-04  4.1096E-04  4.1096E-04  4.1096E-04  4.1096E-04  4.1096E-04  4.1096E-04  4.1096E-04  4.1096E-04
       4.1096E-04  4.1096E-04  4.1096E-04  4.1096E-04  4.1096E-04  4.1096E-04  4.1096E-04  4.1096E-04  4.1096E-04  4.1096E-04
       4.1096E-04  4.1096E-04  4.1096E-04  4.1096E-04  4.1096E-04  4.1096E-04  4.1096E-04  4.1096E-04  4.1096E-04  4.1096E-04
       4.1096E-04  4.1096E-04  4.1096E-04  4.1096E-04  4.1096E-04  4.1096E-04  4.1096E-04  4.1096E-04  4.1096E-04  4.1096E-04
       4.1096E-04  4.1096E-04  4.1096E-04  4.1096E-04  4.1096E-04  4.1096E-04  4.1096E-04  4.1096E-04  4.1096E-04  4.1096E-04
       4.1096E-04  4.1096E-04  4.1096E-04  4.1096E-04  4.1096E-04  4.1096E-04  4.1096E-04  4.1096E-04  4.1096E-04  4.1096E-04
       4.1096E-04  4.1096E-04  4.1096E-04  4.1096E-04  4.1096E-04  4.1096E-04
  32   4.1096E-04  4.1096E-04  4.1096E-04  4.1096E-04  4.1096E-04  4.1096E-04  4.1096E-04  4.1096E-04  4.1096E-04  4.1096E-04
       4.1096E-04  4.1096E-04  4.1096E-04  4.1096E-04  4.1096E-04  4.1096E-04  4.1096E-04  4.1096E-04  4.1096E-04  4.1096E-04
       4.1096E-04  4.1096E-04  4.1096E-04  4.1096E-04  4.1096E-04  4.1096E-04  4.1096E-04  4.1096E-04  4.1096E-04  4.1096E-04
       4.1096E-04  4.1096E-04  4.1096E-04  4.1096E-04  4.1096E-04  4.1096E-04  4.1096E-04  4.1096E-04  4.1096E-04  4.1096E-04
       4.1096E-04  4.1096E-04  4.1096E-04  4.1096E-04  4.1096E-04  4.1096E-04  4.1096E-04  4.1096E-04  4.1096E-04  4.1096E-04
       4.1096E-04  4.1096E-04  4.1096E-04  4.1096E-04  4.1096E-04  4.1096E-04  4.1096E-04  4.1096E-04  4.1096E-04  4.1096E-04
       4.1096E-04  4.1096E-04  4.1096E-04  4.1096E-04  4.1096E-04  4.1096E-04  4.1096E-04  4.1096E-04  4.1096E-04  4.1096E-04
       4.1096E-04  4.1096E-04  4.1096E-04  4.1096E-04  4.1096E-04  4.1096E-04  4.1096E-04  4.1096E-04  4.1096E-04  4.1096E-04
       4.1096E-04  4.1096E-04  4.1096E-04  4.1096E-04  4.1096E-04  4.1096E-04  4.1096E-04  4.1096E-04  4.1096E-04  4.1096E-04
       4.1096E-04  4.1096E-04  4.1096E-04  4.1096E-04  4.1096E-04  4.1096E-04  4.1096E-04  4.1096E-04  4.1096E-04  4.1096E-04
       4.1096E-04  4.1096E-04  4.1096E-04  4.1096E-04  4.1096E-04  4.1096E-04  4.1096E-04  4.1096E-04  4.1096E-04  4.1096E-04
       4.1096E-04  4.1096E-04  4.1096E-04  4.1096E-04  4.1096E-04  4.1096E-04  4.1096E-04  4.1096E-04  4.1096E-04  4.1096E-04
       4.1096E-04  4.1096E-04  4.1096E-04  4.1096E-04  4.1096E-04  4.1096E-04  4.1096E-04  4.1096E-04  4.1096E-04  4.1096E-04
       4.1096E-04  4.1096E-04  4.1096E-04  4.1096E-04  4.1096E-04  4.1096E-04  4.1096E-04  4.1096E-04  4.1096E-04  4.1096E-04
       4.1096E-04  4.1096E-04  4.1096E-04  4.1096E-04  4.1096E-04  4.1096E-04  4.1096E-04  4.1096E-04  4.1096E-04  4.1096E-04
       4.1096E-04  4.1096E-04  4.1096E-04  4.1096E-04  4.1096E-04  4.1096E-04  4.1096E-04  4.1096E-04  4.1096E-04  4.1096E-04
       4.1096E-04  4.1096E-04  4.1096E-04  4.1096E-04  4.1096E-04  4.1096E-04  4.1096E-04  4.1096E-04  4.1096E-04  4.1096E-04
       4.1096E-04  4.1096E-04  4.1096E-04  4.1096E-04  4.1096E-04  4.1096E-04  4.1096E-04  4.1096E-04  4.1096E-04  4.1096E-04
       4.1096E-04  4.1096E-04  4.1096E-04  4.1096E-04  4.1096E-04  4.1096E-04
  33   4.1096E-04  4.1096E-04  4.1096E-04  4.1096E-04  4.1096E-04  4.1096E-04  4.1096E-04  4.1096E-04  4.1096E-04  4.1096E-04
       4.1096E-04  4.1096E-04  4.1096E-04  4.1096E-04  4.1096E-04  4.1096E-04  4.1096E-04  4.1096E-04  4.1096E-04  4.1096E-04
       4.1096E-04  4.1096E-04  4.1096E-04  4.1096E-04  4.1096E-04  4.1096E-04  4.1096E-04  4.1096E-04  4.1096E-04  4.1096E-04
       4.1096E-04  4.1096E-04  4.1096E-04  4.1096E-04  4.1096E-04  4.1096E-04  4.1096E-04  4.1096E-04  4.1096E-04  4.1096E-04
       4.1096E-04  4.1096E-04  4.1096E-04  4.1096E-04  4.1096E-04  4.1096E-04  4.1096E-04  4.1096E-04  4.1096E-04  4.1096E-04
       4.1096E-04  4.1096E-04  4.1096E-04  4.1096E-04  4.1096E-04  4.1096E-04  4.1096E-04  4.1096E-04  4.1096E-04  4.1096E-04
       4.1096E-04  4.1096E-04  4.1096E-04  4.1096E-04  4.1096E-04  4.1096E-04  4.1096E-04  4.1096E-04  4.1096E-04  4.1096E-04
       4.1096E-04  4.1096E-04  4.1096E-04  4.1096E-04  4.1096E-04  4.1096E-04  4.1096E-04  4.1096E-04  4.1096E-04  4.1096E-04
       4.1096E-04  4.1096E-04  4.1096E-04  4.1096E-04  4.1096E-04  4.1096E-04  4.1096E-04  4.1096E-04  4.1096E-04  4.1096E-04
       4.1096E-04  4.1096E-04  4.1096E-04  4.1096E-04  4.1096E-04  4.1096E-04  4.1096E-04  4.1096E-04  4.1096E-04  4.1096E-04
       4.1096E-04  4.1096E-04  4.1096E-04  4.1096E-04  4.1096E-04  4.1096E-04  4.1096E-04  4.1096E-04  4.1096E-04  4.1096E-04
       4.1096E-04  4.1096E-04  4.1096E-04  4.1096E-04  4.1096E-04  4.1096E-04  4.1096E-04  4.1096E-04  4.1096E-04  4.1096E-04
       4.1096E-04  4.1096E-04  4.1096E-04  4.1096E-04  4.1096E-04  4.1096E-04  4.1096E-04  4.1096E-04  4.1096E-04  4.1096E-04
       4.1096E-04  4.1096E-04  4.1096E-04  4.1096E-04  4.1096E-04  4.1096E-04  4.1096E-04  4.1096E-04  4.1096E-04  4.1096E-04
       4.1096E-04  4.1096E-04  4.1096E-04  4.1096E-04  4.1096E-04  4.1096E-04  4.1096E-04  4.1096E-04  4.1096E-04  4.1096E-04
       4.1096E-04  4.1096E-04  4.1096E-04  4.1096E-04  4.1096E-04  4.1096E-04  4.1096E-04  4.1096E-04  4.1096E-04  4.1096E-04
       4.1096E-04  4.1096E-04  4.1096E-04  4.1096E-04  4.1096E-04  4.1096E-04  4.1096E-04  4.1096E-04  4.1096E-04  4.1096E-04
       4.1096E-04  4.1096E-04  4.1096E-04  4.1096E-04  4.1096E-04  4.1096E-04  4.1096E-04  4.1096E-04  4.1096E-04  4.1096E-04
       4.1096E-04  4.1096E-04  4.1096E-04  4.1096E-04  4.1096E-04  4.1096E-04
  34   4.1096E-04  4.1096E-04  4.1096E-04  4.1096E-04  4.1096E-04  4.1096E-04  4.1096E-04  4.1096E-04  4.1096E-04  4.1096E-04
       4.1096E-04  4.1096E-04  4.1096E-04  4.1096E-04  4.1096E-04  4.1096E-04  4.1096E-04  4.1096E-04  4.1096E-04  4.1096E-04
       4.1096E-04  4.1096E-04  4.1096E-04  4.1096E-04  4.1096E-04  4.1096E-04  4.1096E-04  4.1096E-04  4.1096E-04  4.1096E-04
       4.1096E-04  4.1096E-04  4.1096E-04  4.1096E-04  4.1096E-04  4.1096E-04  4.1096E-04  4.1096E-04  4.1096E-04  4.1096E-04
       4.1096E-04  4.1096E-04  4.1096E-04  4.1096E-04  4.1096E-04  4.1096E-04  4.1096E-04  4.1096E-04  4.1096E-04  4.1096E-04
       4.1096E-04  4.1096E-04  4.1096E-04  4.1096E-04  4.1096E-04  4.1096E-04  4.1096E-04  4.1096E-04  4.1096E-04  4.1096E-04
       4.1096E-04  4.1096E-04  4.1096E-04  4.1096E-04  4.1096E-04  4.1096E-04  4.1096E-04  4.1096E-04  4.1096E-04  4.1096E-04
       4.1096E-04  4.1096E-04  4.1096E-04  4.1096E-04  4.1096E-04  4.1096E-04  4.1096E-04  4.1096E-04  4.1096E-04  4.1096E-04
       4.1096E-04  4.1096E-04  4.1096E-04  4.1096E-04  4.1096E-04  4.1096E-04  4.1096E-04  4.1096E-04  4.1096E-04  4.1096E-04
       4.1096E-04  4.1096E-04  4.1096E-04  4.1096E-04  4.1096E-04  4.1096E-04  4.1096E-04  4.1096E-04  4.1096E-04  4.1096E-04
       4.1096E-04  4.1096E-04  4.1096E-04  4.1096E-04  4.1096E-04  4.1096E-04  4.1096E-04  4.1096E-04  4.1096E-04  4.1096E-04
       4.1096E-04  4.1096E-04  4.1096E-04  4.1096E-04  4.1096E-04  4.1096E-04  4.1096E-04  4.1096E-04  4.1096E-04  4.1096E-04
       4.1096E-04  4.1096E-04  4.1096E-04  4.1096E-04  4.1096E-04  4.1096E-04  4.1096E-04  4.1096E-04  4.1096E-04  4.1096E-04
       4.1096E-04  4.1096E-04  4.1096E-04  4.1096E-04  4.1096E-04  4.1096E-04  4.1096E-04  4.1096E-04  4.1096E-04  4.1096E-04
       4.1096E-04  4.1096E-04  4.1096E-04  4.1096E-04  4.1096E-04  4.1096E-04  4.1096E-04  4.1096E-04  4.1096E-04  4.1096E-04
       4.1096E-04  4.1096E-04  4.1096E-04  4.1096E-04  4.1096E-04  4.1096E-04  4.1096E-04  4.1096E-04  4.1096E-04  4.1096E-04
       4.1096E-04  4.1096E-04  4.1096E-04  4.1096E-04  4.1096E-04  4.1096E-04  4.1096E-04  4.1096E-04  4.1096E-04  4.1096E-04
       4.1096E-04  4.1096E-04  4.1096E-04  4.1096E-04  4.1096E-04  4.1096E-04  4.1096E-04  4.1096E-04  4.1096E-04  4.1096E-04
       4.1096E-04  4.1096E-04  4.1096E-04  4.1096E-04  4.1096E-04  4.1096E-04
  35   4.1096E-04  4.1096E-04  4.1096E-04  4.1096E-04  4.1096E-04  4.1096E-04  4.1096E-04  4.1096E-04  4.1096E-04  4.1096E-04
       4.1096E-04  4.1096E-04  4.1096E-04  4.1096E-04  4.1096E-04  4.1096E-04  4.1096E-04  4.1096E-04  4.1096E-04  4.1096E-04
       4.1096E-04  4.1096E-04  4.1096E-04  4.1096E-04  4.1096E-04  4.1096E-04  4.1096E-04  4.1096E-04  4.1096E-04  4.1096E-04
       4.1096E-04  4.1096E-04  4.1096E-04  4.1096E-04  4.1096E-04  4.1096E-04  4.1096E-04  4.1096E-04  4.1096E-04  4.1096E-04
       4.1096E-04  4.1096E-04  4.1096E-04  4.1096E-04  4.1096E-04  4.1096E-04  4.1096E-04  4.1096E-04  4.1096E-04  4.1096E-04
       4.1096E-04  4.1096E-04  4.1096E-04  4.1096E-04  4.1096E-04  4.1096E-04  4.1096E-04  4.1096E-04  4.1096E-04  4.1096E-04
       4.1096E-04  4.1096E-04  4.1096E-04  4.1096E-04  4.1096E-04  4.1096E-04  4.1096E-04  4.1096E-04  4.1096E-04  4.1096E-04
       4.1096E-04  4.1096E-04  4.1096E-04  4.1096E-04  4.1096E-04  4.1096E-04  4.1096E-04  4.1096E-04  4.1096E-04  4.1096E-04
       4.1096E-04  4.1096E-04  4.1096E-04  4.1096E-04  4.1096E-04  4.1096E-04  4.1096E-04  4.1096E-04  4.1096E-04  4.1096E-04
       4.1096E-04  4.1096E-04  4.1096E-04  4.1096E-04  4.1096E-04  4.1096E-04  4.1096E-04  4.1096E-04  4.1096E-04  4.1096E-04
       4.1096E-04  4.1096E-04  4.1096E-04  4.1096E-04  4.1096E-04  4.1096E-04  4.1096E-04  4.1096E-04  4.1096E-04  4.1096E-04
       4.1096E-04  4.1096E-04  4.1096E-04  4.1096E-04  4.1096E-04  4.1096E-04  4.1096E-04  4.1096E-04  4.1096E-04  4.1096E-04
       4.1096E-04  4.1096E-04  4.1096E-04  4.1096E-04  4.1096E-04  4.1096E-04  4.1096E-04  4.1096E-04  4.1096E-04  4.1096E-04
       4.1096E-04  4.1096E-04  4.1096E-04  4.1096E-04  4.1096E-04  4.1096E-04  4.1096E-04  4.1096E-04  4.1096E-04  4.1096E-04
       4.1096E-04  4.1096E-04  4.1096E-04  4.1096E-04  4.1096E-04  4.1096E-04  4.1096E-04  4.1096E-04  4.1096E-04  4.1096E-04
       4.1096E-04  4.1096E-04  4.1096E-04  4.1096E-04  4.1096E-04  4.1096E-04  4.1096E-04  4.1096E-04  4.1096E-04  4.1096E-04
       4.1096E-04  4.1096E-04  4.1096E-04  4.1096E-04  4.1096E-04  4.1096E-04  4.1096E-04  4.1096E-04  4.1096E-04  4.1096E-04
       4.1096E-04  4.1096E-04  4.1096E-04  4.1096E-04  4.1096E-04  4.1096E-04  4.1096E-04  4.1096E-04  4.1096E-04  4.1096E-04
       4.1096E-04  4.1096E-04  4.1096E-04  4.1096E-04  4.1096E-04  4.1096E-04
  36   4.1096E-04  4.1096E-04  4.1096E-04  4.1096E-04  4.1096E-04  4.1096E-04  4.1096E-04  4.1096E-04  4.1096E-04  4.1096E-04
       4.1096E-04  4.1096E-04  4.1096E-04  4.1096E-04  4.1096E-04  4.1096E-04  4.1096E-04  4.1096E-04  4.1096E-04  4.1096E-04
       4.1096E-04  4.1096E-04  4.1096E-04  4.1096E-04  4.1096E-04  4.1096E-04  4.1096E-04  4.1096E-04  4.1096E-04  4.1096E-04
       4.1096E-04  4.1096E-04  4.1096E-04  4.1096E-04  4.1096E-04  4.1096E-04  4.1096E-04  4.1096E-04  4.1096E-04  4.1096E-04
       4.1096E-04  4.1096E-04  4.1096E-04  4.1096E-04  4.1096E-04  4.1096E-04  4.1096E-04  4.1096E-04  4.1096E-04  4.1096E-04
       4.1096E-04  4.1096E-04  4.1096E-04  4.1096E-04  4.1096E-04  4.1096E-04  4.1096E-04  4.1096E-04  4.1096E-04  4.1096E-04
       4.1096E-04  4.1096E-04  4.1096E-04  4.1096E-04  4.1096E-04  4.1096E-04  4.1096E-04  4.1096E-04  4.1096E-04  4.1096E-04
       4.1096E-04  4.1096E-04  4.1096E-04  4.1096E-04  4.1096E-04  4.1096E-04  4.1096E-04  4.1096E-04  4.1096E-04  4.1096E-04
       4.1096E-04  4.1096E-04  4.1096E-04  4.1096E-04  4.1096E-04  4.1096E-04  4.1096E-04  4.1096E-04  4.1096E-04  4.1096E-04
       4.1096E-04  4.1096E-04  4.1096E-04  4.1096E-04  4.1096E-04  4.1096E-04  4.1096E-04  4.1096E-04  4.1096E-04  4.1096E-04
       4.1096E-04  4.1096E-04  4.1096E-04  4.1096E-04  4.1096E-04  4.1096E-04  4.1096E-04  4.1096E-04  4.1096E-04  4.1096E-04
       4.1096E-04  4.1096E-04  4.1096E-04  4.1096E-04  4.1096E-04  4.1096E-04  4.1096E-04  4.1096E-04  4.1096E-04  4.1096E-04
       4.1096E-04  4.1096E-04  4.1096E-04  4.1096E-04  4.1096E-04  4.1096E-04  4.1096E-04  4.1096E-04  4.1096E-04  4.1096E-04
       4.1096E-04  4.1096E-04  4.1096E-04  4.1096E-04  4.1096E-04  4.1096E-04  4.1096E-04  4.1096E-04  4.1096E-04  4.1096E-04
       4.1096E-04  4.1096E-04  4.1096E-04  4.1096E-04  4.1096E-04  4.1096E-04  4.1096E-04  4.1096E-04  4.1096E-04  4.1096E-04
       4.1096E-04  4.1096E-04  4.1096E-04  4.1096E-04  4.1096E-04  4.1096E-04  4.1096E-04  4.1096E-04  4.1096E-04  4.1096E-04
       4.1096E-04  4.1096E-04  4.1096E-04  4.1096E-04  4.1096E-04  4.1096E-04  4.1096E-04  4.1096E-04  4.1096E-04  4.1096E-04
       4.1096E-04  4.1096E-04  4.1096E-04  4.1096E-04  4.1096E-04  4.1096E-04  4.1096E-04  4.1096E-04  4.1096E-04  4.1096E-04
       4.1096E-04  4.1096E-04  4.1096E-04  4.1096E-04  4.1096E-04  4.1096E-04
  37   4.1096E-04  4.1096E-04  4.1096E-04  4.1096E-04  4.1096E-04  4.1096E-04  4.1096E-04  4.1096E-04  4.1096E-04  4.1096E-04
       4.1096E-04  4.1096E-04  4.1096E-04  4.1096E-04  4.1096E-04  4.1096E-04  4.1096E-04  4.1096E-04  4.1096E-04  4.1096E-04
       4.1096E-04  4.1096E-04  4.1096E-04  4.1096E-04  4.1096E-04  4.1096E-04  4.1096E-04  4.1096E-04  4.1096E-04  4.1096E-04
       4.1096E-04  4.1096E-04  4.1096E-04  4.1096E-04  4.1096E-04  4.1096E-04  4.1096E-04  4.1096E-04  4.1096E-04  4.1096E-04
       4.1096E-04  4.1096E-04  4.1096E-04  4.1096E-04  4.1096E-04  4.1096E-04  4.1096E-04  4.1096E-04  4.1096E-04  4.1096E-04
       4.1096E-04  4.1096E-04  4.1096E-04  4.1096E-04  4.1096E-04  4.1096E-04  4.1096E-04  4.1096E-04  4.1096E-04  4.1096E-04
       4.1096E-04  4.1096E-04  4.1096E-04  4.1096E-04  4.1096E-04  4.1096E-04  4.1096E-04  4.1096E-04  4.1096E-04  4.1096E-04
       4.1096E-04  4.1096E-04  4.1096E-04  4.1096E-04  4.1096E-04  4.1096E-04  4.1096E-04  4.1096E-04  4.1096E-04  4.1096E-04
       4.1096E-04  4.1096E-04  4.1096E-04  4.1096E-04  4.1096E-04  4.1096E-04  4.1096E-04  4.1096E-04  4.1096E-04  4.1096E-04
       4.1096E-04  4.1096E-04  4.1096E-04  4.1096E-04  4.1096E-04  4.1096E-04  4.1096E-04  4.1096E-04  4.1096E-04  4.1096E-04
       4.1096E-04  4.1096E-04  4.1096E-04  4.1096E-04  4.1096E-04  4.1096E-04  4.1096E-04  4.1096E-04  4.1096E-04  4.1096E-04
       4.1096E-04  4.1096E-04  4.1096E-04  4.1096E-04  4.1096E-04  4.1096E-04  4.1096E-04  4.1096E-04  4.1096E-04  4.1096E-04
       4.1096E-04  4.1096E-04  4.1096E-04  4.1096E-04  4.1096E-04  4.1096E-04  4.1096E-04  4.1096E-04  4.1096E-04  4.1096E-04
       4.1096E-04  4.1096E-04  4.1096E-04  4.1096E-04  4.1096E-04  4.1096E-04  4.1096E-04  4.1096E-04  4.1096E-04  4.1096E-04
       4.1096E-04  4.1096E-04  4.1096E-04  4.1096E-04  4.1096E-04  4.1096E-04  4.1096E-04  4.1096E-04  4.1096E-04  4.1096E-04
       4.1096E-04  4.1096E-04  4.1096E-04  4.1096E-04  4.1096E-04  4.1096E-04  4.1096E-04  4.1096E-04  4.1096E-04  4.1096E-04
       4.1096E-04  4.1096E-04  4.1096E-04  4.1096E-04  4.1096E-04  4.1096E-04  4.1096E-04  4.1096E-04  4.1096E-04  4.1096E-04
       4.1096E-04  4.1096E-04  4.1096E-04  4.1096E-04  4.1096E-04  4.1096E-04  4.1096E-04  4.1096E-04  4.1096E-04  4.1096E-04
       4.1096E-04  4.1096E-04  4.1096E-04  4.1096E-04  4.1096E-04  4.1096E-04
  38   4.1096E-04  4.1096E-04  4.1096E-04  4.1096E-04  4.1096E-04  4.1096E-04  4.1096E-04  4.1096E-04  4.1096E-04  4.1096E-04
       4.1096E-04  4.1096E-04  4.1096E-04  4.1096E-04  4.1096E-04  4.1096E-04  4.1096E-04  4.1096E-04  4.1096E-04  4.1096E-04
       4.1096E-04  4.1096E-04  4.1096E-04  4.1096E-04  4.1096E-04  4.1096E-04  4.1096E-04  4.1096E-04  4.1096E-04  4.1096E-04
       4.1096E-04  4.1096E-04  4.1096E-04  4.1096E-04  4.1096E-04  4.1096E-04  4.1096E-04  4.1096E-04  4.1096E-04  4.1096E-04
       4.1096E-04  4.1096E-04  4.1096E-04  4.1096E-04  4.1096E-04  4.1096E-04  4.1096E-04  4.1096E-04  4.1096E-04  4.1096E-04
       4.1096E-04  4.1096E-04  4.1096E-04  4.1096E-04  4.1096E-04  4.1096E-04  4.1096E-04  4.1096E-04  4.1096E-04  4.1096E-04
       4.1096E-04  4.1096E-04  4.1096E-04  4.1096E-04  4.1096E-04  4.1096E-04  4.1096E-04  4.1096E-04  4.1096E-04  4.1096E-04
       4.1096E-04  4.1096E-04  4.1096E-04  4.1096E-04  4.1096E-04  4.1096E-04  4.1096E-04  4.1096E-04  4.1096E-04  4.1096E-04
       4.1096E-04  4.1096E-04  4.1096E-04  4.1096E-04  4.1096E-04  4.1096E-04  4.1096E-04  4.1096E-04  4.1096E-04  4.1096E-04
       4.1096E-04  4.1096E-04  4.1096E-04  4.1096E-04  4.1096E-04  4.1096E-04  4.1096E-04  4.1096E-04  4.1096E-04  4.1096E-04
       4.1096E-04  4.1096E-04  4.1096E-04  4.1096E-04  4.1096E-04  4.1096E-04  4.1096E-04  4.1096E-04  4.1096E-04  4.1096E-04
       4.1096E-04  4.1096E-04  4.1096E-04  4.1096E-04  4.1096E-04  4.1096E-04  4.1096E-04  4.1096E-04  4.1096E-04  4.1096E-04
       4.1096E-04  4.1096E-04  4.1096E-04  4.1096E-04  4.1096E-04  4.1096E-04  4.1096E-04  4.1096E-04  4.1096E-04  4.1096E-04
       4.1096E-04  4.1096E-04  4.1096E-04  4.1096E-04  4.1096E-04  4.1096E-04  4.1096E-04  4.1096E-04  4.1096E-04  4.1096E-04
       4.1096E-04  4.1096E-04  4.1096E-04  4.1096E-04  4.1096E-04  4.1096E-04  4.1096E-04  4.1096E-04  4.1096E-04  4.1096E-04
       4.1096E-04  4.1096E-04  4.1096E-04  4.1096E-04  4.1096E-04  4.1096E-04  4.1096E-04  4.1096E-04  4.1096E-04  4.1096E-04
       4.1096E-04  4.1096E-04  4.1096E-04  4.1096E-04  4.1096E-04  4.1096E-04  4.1096E-04  4.1096E-04  4.1096E-04  4.1096E-04
       4.1096E-04  4.1096E-04  4.1096E-04  4.1096E-04  4.1096E-04  4.1096E-04  4.1096E-04  4.1096E-04  4.1096E-04  4.1096E-04
       4.1096E-04  4.1096E-04  4.1096E-04  4.1096E-04  4.1096E-04  4.1096E-04
  39   4.1096E-04  4.1096E-04  4.1096E-04  4.1096E-04  4.1096E-04  4.1096E-04  4.1096E-04  4.1096E-04  4.1096E-04  4.1096E-04
       4.1096E-04  4.1096E-04  4.1096E-04  4.1096E-04  4.1096E-04  4.1096E-04  4.1096E-04  4.1096E-04  4.1096E-04  4.1096E-04
       4.1096E-04  4.1096E-04  4.1096E-04  4.1096E-04  4.1096E-04  4.1096E-04  4.1096E-04  4.1096E-04  4.1096E-04  4.1096E-04
       4.1096E-04  4.1096E-04  4.1096E-04  4.1096E-04  4.1096E-04  4.1096E-04  4.1096E-04  4.1096E-04  4.1096E-04  4.1096E-04
       4.1096E-04  4.1096E-04  4.1096E-04  4.1096E-04  4.1096E-04  4.1096E-04  4.1096E-04  4.1096E-04  4.1096E-04  4.1096E-04
       4.1096E-04  4.1096E-04  4.1096E-04  4.1096E-04  4.1096E-04  4.1096E-04  4.1096E-04  4.1096E-04  4.1096E-04  4.1096E-04
       4.1096E-04  4.1096E-04  4.1096E-04  4.1096E-04  4.1096E-04  4.1096E-04  4.1096E-04  4.1096E-04  4.1096E-04  4.1096E-04
       4.1096E-04  4.1096E-04  4.1096E-04  4.1096E-04  4.1096E-04  4.1096E-04  4.1096E-04  4.1096E-04  4.1096E-04  4.1096E-04
       4.1096E-04  4.1096E-04  4.1096E-04  4.1096E-04  4.1096E-04  4.1096E-04  4.1096E-04  4.1096E-04  4.1096E-04  4.1096E-04
       4.1096E-04  4.1096E-04  4.1096E-04  4.1096E-04  4.1096E-04  4.1096E-04  4.1096E-04  4.1096E-04  4.1096E-04  4.1096E-04
       4.1096E-04  4.1096E-04  4.1096E-04  4.1096E-04  4.1096E-04  4.1096E-04  4.1096E-04  4.1096E-04  4.1096E-04  4.1096E-04
       4.1096E-04  4.1096E-04  4.1096E-04  4.1096E-04  4.1096E-04  4.1096E-04  4.1096E-04  4.1096E-04  4.1096E-04  4.1096E-04
       4.1096E-04  4.1096E-04  4.1096E-04  4.1096E-04  4.1096E-04  4.1096E-04  4.1096E-04  4.1096E-04  4.1096E-04  4.1096E-04
       4.1096E-04  4.1096E-04  4.1096E-04  4.1096E-04  4.1096E-04  4.1096E-04  4.1096E-04  4.1096E-04  4.1096E-04  4.1096E-04
       4.1096E-04  4.1096E-04  4.1096E-04  4.1096E-04  4.1096E-04  4.1096E-04  4.1096E-04  4.1096E-04  4.1096E-04  4.1096E-04
       4.1096E-04  4.1096E-04  4.1096E-04  4.1096E-04  4.1096E-04  4.1096E-04  4.1096E-04  4.1096E-04  4.1096E-04  4.1096E-04
       4.1096E-04  4.1096E-04  4.1096E-04  4.1096E-04  4.1096E-04  4.1096E-04  4.1096E-04  4.1096E-04  4.1096E-04  4.1096E-04
       4.1096E-04  4.1096E-04  4.1096E-04  4.1096E-04  4.1096E-04  4.1096E-04  4.1096E-04  4.1096E-04  4.1096E-04  4.1096E-04
       4.1096E-04  4.1096E-04  4.1096E-04  4.1096E-04  4.1096E-04  4.1096E-04
  40   4.1096E-04  4.1096E-04  4.1096E-04  4.1096E-04  4.1096E-04  4.1096E-04  4.1096E-04  4.1096E-04  4.1096E-04  4.1096E-04
       4.1096E-04  4.1096E-04  4.1096E-04  4.1096E-04  4.1096E-04  4.1096E-04  4.1096E-04  4.1096E-04  4.1096E-04  4.1096E-04
       4.1096E-04  4.1096E-04  4.1096E-04  4.1096E-04  4.1096E-04  4.1096E-04  4.1096E-04  4.1096E-04  4.1096E-04  4.1096E-04
       4.1096E-04  4.1096E-04  4.1096E-04  4.1096E-04  4.1096E-04  4.1096E-04  4.1096E-04  4.1096E-04  4.1096E-04  4.1096E-04
       4.1096E-04  4.1096E-04  4.1096E-04  4.1096E-04  4.1096E-04  4.1096E-04  4.1096E-04  4.1096E-04  4.1096E-04  4.1096E-04
       4.1096E-04  4.1096E-04  4.1096E-04  4.1096E-04  4.1096E-04  4.1096E-04  4.1096E-04  4.1096E-04  4.1096E-04  4.1096E-04
       4.1096E-04  4.1096E-04  4.1096E-04  4.1096E-04  4.1096E-04  4.1096E-04  4.1096E-04  4.1096E-04  4.1096E-04  4.1096E-04
       4.1096E-04  4.1096E-04  4.1096E-04  4.1096E-04  4.1096E-04  4.1096E-04  4.1096E-04  4.1096E-04  4.1096E-04  4.1096E-04
       4.1096E-04  4.1096E-04  4.1096E-04  4.1096E-04  4.1096E-04  4.1096E-04  4.1096E-04  4.1096E-04  4.1096E-04  4.1096E-04
       4.1096E-04  4.1096E-04  4.1096E-04  4.1096E-04  4.1096E-04  4.1096E-04  4.1096E-04  4.1096E-04  4.1096E-04  4.1096E-04
       4.1096E-04  4.1096E-04  4.1096E-04  4.1096E-04  4.1096E-04  4.1096E-04  4.1096E-04  4.1096E-04  4.1096E-04  4.1096E-04
       4.1096E-04  4.1096E-04  4.1096E-04  4.1096E-04  4.1096E-04  4.1096E-04  4.1096E-04  4.1096E-04  4.1096E-04  4.1096E-04
       4.1096E-04  4.1096E-04  4.1096E-04  4.1096E-04  4.1096E-04  4.1096E-04  4.1096E-04  4.1096E-04  4.1096E-04  4.1096E-04
       4.1096E-04  4.1096E-04  4.1096E-04  4.1096E-04  4.1096E-04  4.1096E-04  4.1096E-04  4.1096E-04  4.1096E-04  4.1096E-04
       4.1096E-04  4.1096E-04  4.1096E-04  4.1096E-04  4.1096E-04  4.1096E-04  4.1096E-04  4.1096E-04  4.1096E-04  4.1096E-04
       4.1096E-04  4.1096E-04  4.1096E-04  4.1096E-04  4.1096E-04  4.1096E-04  4.1096E-04  4.1096E-04  4.1096E-04  4.1096E-04
       4.1096E-04  4.1096E-04  4.1096E-04  4.1096E-04  4.1096E-04  4.1096E-04  4.1096E-04  4.1096E-04  4.1096E-04  4.1096E-04
       4.1096E-04  4.1096E-04  4.1096E-04  4.1096E-04  4.1096E-04  4.1096E-04  4.1096E-04  4.1096E-04  4.1096E-04  4.1096E-04
       4.1096E-04  4.1096E-04  4.1096E-04  4.1096E-04  4.1096E-04  4.1096E-04
  41   4.1096E-04  4.1096E-04  4.1096E-04  4.1096E-04  4.1096E-04  4.1096E-04  4.1096E-04  4.1096E-04  4.1096E-04  4.1096E-04
       4.1096E-04  4.1096E-04  4.1096E-04  4.1096E-04  4.1096E-04  4.1096E-04  4.1096E-04  4.1096E-04  4.1096E-04  4.1096E-04
       4.1096E-04  4.1096E-04  4.1096E-04  4.1096E-04  4.1096E-04  4.1096E-04  4.1096E-04  4.1096E-04  4.1096E-04  4.1096E-04
       4.1096E-04  4.1096E-04  4.1096E-04  4.1096E-04  4.1096E-04  4.1096E-04  4.1096E-04  4.1096E-04  4.1096E-04  4.1096E-04
       4.1096E-04  4.1096E-04  4.1096E-04  4.1096E-04  4.1096E-04  4.1096E-04  4.1096E-04  4.1096E-04  4.1096E-04  4.1096E-04
       4.1096E-04  4.1096E-04  4.1096E-04  4.1096E-04  4.1096E-04  4.1096E-04  4.1096E-04  4.1096E-04  4.1096E-04  4.1096E-04
       4.1096E-04  4.1096E-04  4.1096E-04  4.1096E-04  4.1096E-04  4.1096E-04  4.1096E-04  4.1096E-04  4.1096E-04  4.1096E-04
       4.1096E-04  4.1096E-04  4.1096E-04  4.1096E-04  4.1096E-04  4.1096E-04  4.1096E-04  4.1096E-04  4.1096E-04  4.1096E-04
       4.1096E-04  4.1096E-04  4.1096E-04  4.1096E-04  4.1096E-04  4.1096E-04  4.1096E-04  4.1096E-04  4.1096E-04  4.1096E-04
       4.1096E-04  4.1096E-04  4.1096E-04  4.1096E-04  4.1096E-04  4.1096E-04  4.1096E-04  4.1096E-04  4.1096E-04  4.1096E-04
       4.1096E-04  4.1096E-04  4.1096E-04  4.1096E-04  4.1096E-04  4.1096E-04  4.1096E-04  4.1096E-04  4.1096E-04  4.1096E-04
       4.1096E-04  4.1096E-04  4.1096E-04  4.1096E-04  4.1096E-04  4.1096E-04  4.1096E-04  4.1096E-04  4.1096E-04  4.1096E-04
       4.1096E-04  4.1096E-04  4.1096E-04  4.1096E-04  4.1096E-04  4.1096E-04  4.1096E-04  4.1096E-04  4.1096E-04  4.1096E-04
       4.1096E-04  4.1096E-04  4.1096E-04  4.1096E-04  4.1096E-04  4.1096E-04  4.1096E-04  4.1096E-04  4.1096E-04  4.1096E-04
       4.1096E-04  4.1096E-04  4.1096E-04  4.1096E-04  4.1096E-04  4.1096E-04  4.1096E-04  4.1096E-04  4.1096E-04  4.1096E-04
       4.1096E-04  4.1096E-04  4.1096E-04  4.1096E-04  4.1096E-04  4.1096E-04  4.1096E-04  4.1096E-04  4.1096E-04  4.1096E-04
       4.1096E-04  4.1096E-04  4.1096E-04  4.1096E-04  4.1096E-04  4.1096E-04  4.1096E-04  4.1096E-04  4.1096E-04  4.1096E-04
       4.1096E-04  4.1096E-04  4.1096E-04  4.1096E-04  4.1096E-04  4.1096E-04  4.1096E-04  4.1096E-04  4.1096E-04  4.1096E-04
       4.1096E-04  4.1096E-04  4.1096E-04  4.1096E-04  4.1096E-04  4.1096E-04
  42   4.1096E-04  4.1096E-04  4.1096E-04  4.1096E-04  4.1096E-04  4.1096E-04  4.1096E-04  4.1096E-04  4.1096E-04  4.1096E-04
       4.1096E-04  4.1096E-04  4.1096E-04  4.1096E-04  4.1096E-04  4.1096E-04  4.1096E-04  4.1096E-04  4.1096E-04  4.1096E-04
       4.1096E-04  4.1096E-04  4.1096E-04  4.1096E-04  4.1096E-04  4.1096E-04  4.1096E-04  4.1096E-04  4.1096E-04  4.1096E-04
       4.1096E-04  4.1096E-04  4.1096E-04  4.1096E-04  4.1096E-04  4.1096E-04  4.1096E-04  4.1096E-04  4.1096E-04  4.1096E-04
       4.1096E-04  4.1096E-04  4.1096E-04  4.1096E-04  4.1096E-04  4.1096E-04  4.1096E-04  4.1096E-04  4.1096E-04  4.1096E-04
       4.1096E-04  4.1096E-04  4.1096E-04  4.1096E-04  4.1096E-04  4.1096E-04  4.1096E-04  4.1096E-04  4.1096E-04  4.1096E-04
       4.1096E-04  4.1096E-04  4.1096E-04  4.1096E-04  4.1096E-04  4.1096E-04  4.1096E-04  4.1096E-04  4.1096E-04  4.1096E-04
       4.1096E-04  4.1096E-04  4.1096E-04  4.1096E-04  4.1096E-04  4.1096E-04  4.1096E-04  4.1096E-04  4.1096E-04  4.1096E-04
       4.1096E-04  4.1096E-04  4.1096E-04  4.1096E-04  4.1096E-04  4.1096E-04  4.1096E-04  4.1096E-04  4.1096E-04  4.1096E-04
       4.1096E-04  4.1096E-04  4.1096E-04  4.1096E-04  4.1096E-04  4.1096E-04  4.1096E-04  4.1096E-04  4.1096E-04  4.1096E-04
       4.1096E-04  4.1096E-04  4.1096E-04  4.1096E-04  4.1096E-04  4.1096E-04  4.1096E-04  4.1096E-04  4.1096E-04  4.1096E-04
       4.1096E-04  4.1096E-04  4.1096E-04  4.1096E-04  4.1096E-04  4.1096E-04  4.1096E-04  4.1096E-04  4.1096E-04  4.1096E-04
       4.1096E-04  4.1096E-04  4.1096E-04  4.1096E-04  4.1096E-04  4.1096E-04  4.1096E-04  4.1096E-04  4.1096E-04  4.1096E-04
       4.1096E-04  4.1096E-04  4.1096E-04  4.1096E-04  4.1096E-04  4.1096E-04  4.1096E-04  4.1096E-04  4.1096E-04  4.1096E-04
       4.1096E-04  4.1096E-04  4.1096E-04  4.1096E-04  4.1096E-04  4.1096E-04  4.1096E-04  4.1096E-04  4.1096E-04  4.1096E-04
       4.1096E-04  4.1096E-04  4.1096E-04  4.1096E-04  4.1096E-04  4.1096E-04  4.1096E-04  4.1096E-04  4.1096E-04  4.1096E-04
       4.1096E-04  4.1096E-04  4.1096E-04  4.1096E-04  4.1096E-04  4.1096E-04  4.1096E-04  4.1096E-04  4.1096E-04  4.1096E-04
       4.1096E-04  4.1096E-04  4.1096E-04  4.1096E-04  4.1096E-04  4.1096E-04  4.1096E-04  4.1096E-04  4.1096E-04  4.1096E-04
       4.1096E-04  4.1096E-04  4.1096E-04  4.1096E-04  4.1096E-04  4.1096E-04
  43   4.1096E-04  4.1096E-04  4.1096E-04  4.1096E-04  4.1096E-04  4.1096E-04  4.1096E-04  4.1096E-04  4.1096E-04  4.1096E-04
       4.1096E-04  4.1096E-04  4.1096E-04  4.1096E-04  4.1096E-04  4.1096E-04  4.1096E-04  4.1096E-04  4.1096E-04  4.1096E-04
       4.1096E-04  4.1096E-04  4.1096E-04  4.1096E-04  4.1096E-04  4.1096E-04  4.1096E-04  4.1096E-04  4.1096E-04  4.1096E-04
       4.1096E-04  4.1096E-04  4.1096E-04  4.1096E-04  4.1096E-04  4.1096E-04  4.1096E-04  4.1096E-04  4.1096E-04  4.1096E-04
       4.1096E-04  4.1096E-04  4.1096E-04  4.1096E-04  4.1096E-04  4.1096E-04  4.1096E-04  4.1096E-04  4.1096E-04  4.1096E-04
       4.1096E-04  4.1096E-04  4.1096E-04  4.1096E-04  4.1096E-04  4.1096E-04  4.1096E-04  4.1096E-04  4.1096E-04  4.1096E-04
       4.1096E-04  4.1096E-04  4.1096E-04  4.1096E-04  4.1096E-04  4.1096E-04  4.1096E-04  4.1096E-04  4.1096E-04  4.1096E-04
       4.1096E-04  4.1096E-04  4.1096E-04  4.1096E-04  4.1096E-04  4.1096E-04  4.1096E-04  4.1096E-04  4.1096E-04  4.1096E-04
       4.1096E-04  4.1096E-04  4.1096E-04  4.1096E-04  4.1096E-04  4.1096E-04  4.1096E-04  4.1096E-04  4.1096E-04  4.1096E-04
       4.1096E-04  4.1096E-04  4.1096E-04  4.1096E-04  4.1096E-04  4.1096E-04  4.1096E-04  4.1096E-04  4.1096E-04  4.1096E-04
       4.1096E-04  4.1096E-04  4.1096E-04  4.1096E-04  4.1096E-04  4.1096E-04  4.1096E-04  4.1096E-04  4.1096E-04  4.1096E-04
       4.1096E-04  4.1096E-04  4.1096E-04  4.1096E-04  4.1096E-04  4.1096E-04  4.1096E-04  4.1096E-04  4.1096E-04  4.1096E-04
       4.1096E-04  4.1096E-04  4.1096E-04  4.1096E-04  4.1096E-04  4.1096E-04  4.1096E-04  4.1096E-04  4.1096E-04  4.1096E-04
       4.1096E-04  4.1096E-04  4.1096E-04  4.1096E-04  4.1096E-04  4.1096E-04  4.1096E-04  4.1096E-04  4.1096E-04  4.1096E-04
       4.1096E-04  4.1096E-04  4.1096E-04  4.1096E-04  4.1096E-04  4.1096E-04  4.1096E-04  4.1096E-04  4.1096E-04  4.1096E-04
       4.1096E-04  4.1096E-04  4.1096E-04  4.1096E-04  4.1096E-04  4.1096E-04  4.1096E-04  4.1096E-04  4.1096E-04  4.1096E-04
       4.1096E-04  4.1096E-04  4.1096E-04  4.1096E-04  4.1096E-04  4.1096E-04  4.1096E-04  4.1096E-04  4.1096E-04  4.1096E-04
       4.1096E-04  4.1096E-04  4.1096E-04  4.1096E-04  4.1096E-04  4.1096E-04  4.1096E-04  4.1096E-04  4.1096E-04  4.1096E-04
       4.1096E-04  4.1096E-04  4.1096E-04  4.1096E-04  4.1096E-04  4.1096E-04
  44   4.1096E-04  4.1096E-04  4.1096E-04  4.1096E-04  4.1096E-04  4.1096E-04  4.1096E-04  4.1096E-04  4.1096E-04  4.1096E-04
       4.1096E-04  4.1096E-04  4.1096E-04  4.1096E-04  4.1096E-04  4.1096E-04  4.1096E-04  4.1096E-04  4.1096E-04  4.1096E-04
       4.1096E-04  4.1096E-04  4.1096E-04  4.1096E-04  4.1096E-04  4.1096E-04  4.1096E-04  4.1096E-04  4.1096E-04  4.1096E-04
       4.1096E-04  4.1096E-04  4.1096E-04  4.1096E-04  4.1096E-04  4.1096E-04  4.1096E-04  4.1096E-04  4.1096E-04  4.1096E-04
       4.1096E-04  4.1096E-04  4.1096E-04  4.1096E-04  4.1096E-04  4.1096E-04  4.1096E-04  4.1096E-04  4.1096E-04  4.1096E-04
       4.1096E-04  4.1096E-04  4.1096E-04  4.1096E-04  4.1096E-04  4.1096E-04  4.1096E-04  4.1096E-04  4.1096E-04  4.1096E-04
       4.1096E-04  4.1096E-04  4.1096E-04  4.1096E-04  4.1096E-04  4.1096E-04  4.1096E-04  4.1096E-04  4.1096E-04  4.1096E-04
       4.1096E-04  4.1096E-04  4.1096E-04  4.1096E-04  4.1096E-04  4.1096E-04  4.1096E-04  4.1096E-04  4.1096E-04  4.1096E-04
       4.1096E-04  4.1096E-04  4.1096E-04  4.1096E-04  4.1096E-04  4.1096E-04  4.1096E-04  4.1096E-04  4.1096E-04  4.1096E-04
       4.1096E-04  4.1096E-04  4.1096E-04  4.1096E-04  4.1096E-04  4.1096E-04  4.1096E-04  4.1096E-04  4.1096E-04  4.1096E-04
       4.1096E-04  4.1096E-04  4.1096E-04  4.1096E-04  4.1096E-04  4.1096E-04  4.1096E-04  4.1096E-04  4.1096E-04  4.1096E-04
       4.1096E-04  4.1096E-04  4.1096E-04  4.1096E-04  4.1096E-04  4.1096E-04  4.1096E-04  4.1096E-04  4.1096E-04  4.1096E-04
       4.1096E-04  4.1096E-04  4.1096E-04  4.1096E-04  4.1096E-04  4.1096E-04  4.1096E-04  4.1096E-04  4.1096E-04  4.1096E-04
       4.1096E-04  4.1096E-04  4.1096E-04  4.1096E-04  4.1096E-04  4.1096E-04  4.1096E-04  4.1096E-04  4.1096E-04  4.1096E-04
       4.1096E-04  4.1096E-04  4.1096E-04  4.1096E-04  4.1096E-04  4.1096E-04  4.1096E-04  4.1096E-04  4.1096E-04  4.1096E-04
       4.1096E-04  4.1096E-04  4.1096E-04  4.1096E-04  4.1096E-04  4.1096E-04  4.1096E-04  4.1096E-04  4.1096E-04  4.1096E-04
       4.1096E-04  4.1096E-04  4.1096E-04  4.1096E-04  4.1096E-04  4.1096E-04  4.1096E-04  4.1096E-04  4.1096E-04  4.1096E-04
       4.1096E-04  4.1096E-04  4.1096E-04  4.1096E-04  4.1096E-04  4.1096E-04  4.1096E-04  4.1096E-04  4.1096E-04  4.1096E-04
       4.1096E-04  4.1096E-04  4.1096E-04  4.1096E-04  4.1096E-04  4.1096E-04
  45   4.1096E-04  4.1096E-04  4.1096E-04  4.1096E-04  4.1096E-04  4.1096E-04  4.1096E-04  4.1096E-04  4.1096E-04  4.1096E-04
       4.1096E-04  4.1096E-04  4.1096E-04  4.1096E-04  4.1096E-04  4.1096E-04  4.1096E-04  4.1096E-04  4.1096E-04  4.1096E-04
       4.1096E-04  4.1096E-04  4.1096E-04  4.1096E-04  4.1096E-04  4.1096E-04  4.1096E-04  4.1096E-04  4.1096E-04  4.1096E-04
       4.1096E-04  4.1096E-04  4.1096E-04  4.1096E-04  4.1096E-04  4.1096E-04  4.1096E-04  4.1096E-04  4.1096E-04  4.1096E-04
       4.1096E-04  4.1096E-04  4.1096E-04  4.1096E-04  4.1096E-04  4.1096E-04  4.1096E-04  4.1096E-04  4.1096E-04  4.1096E-04
       4.1096E-04  4.1096E-04  4.1096E-04  4.1096E-04  4.1096E-04  4.1096E-04  4.1096E-04  4.1096E-04  4.1096E-04  4.1096E-04
       4.1096E-04  4.1096E-04  4.1096E-04  4.1096E-04  4.1096E-04  4.1096E-04  4.1096E-04  4.1096E-04  4.1096E-04  4.1096E-04
       4.1096E-04  4.1096E-04  4.1096E-04  4.1096E-04  4.1096E-04  4.1096E-04  4.1096E-04  4.1096E-04  4.1096E-04  4.1096E-04
       4.1096E-04  4.1096E-04  4.1096E-04  4.1096E-04  4.1096E-04  4.1096E-04  4.1096E-04  4.1096E-04  4.1096E-04  4.1096E-04
       4.1096E-04  4.1096E-04  4.1096E-04  4.1096E-04  4.1096E-04  4.1096E-04  4.1096E-04  4.1096E-04  4.1096E-04  4.1096E-04
       4.1096E-04  4.1096E-04  4.1096E-04  4.1096E-04  4.1096E-04  4.1096E-04  4.1096E-04  4.1096E-04  4.1096E-04  4.1096E-04
       4.1096E-04  4.1096E-04  4.1096E-04  4.1096E-04  4.1096E-04  4.1096E-04  4.1096E-04  4.1096E-04  4.1096E-04  4.1096E-04
       4.1096E-04  4.1096E-04  4.1096E-04  4.1096E-04  4.1096E-04  4.1096E-04  4.1096E-04  4.1096E-04  4.1096E-04  4.1096E-04
       4.1096E-04  4.1096E-04  4.1096E-04  4.1096E-04  4.1096E-04  4.1096E-04  4.1096E-04  4.1096E-04  4.1096E-04  4.1096E-04
       4.1096E-04  4.1096E-04  4.1096E-04  4.1096E-04  4.1096E-04  4.1096E-04  4.1096E-04  4.1096E-04  4.1096E-04  4.1096E-04
       4.1096E-04  4.1096E-04  4.1096E-04  4.1096E-04  4.1096E-04  4.1096E-04  4.1096E-04  4.1096E-04  4.1096E-04  4.1096E-04
       4.1096E-04  4.1096E-04  4.1096E-04  4.1096E-04  4.1096E-04  4.1096E-04  4.1096E-04  4.1096E-04  4.1096E-04  4.1096E-04
       4.1096E-04  4.1096E-04  4.1096E-04  4.1096E-04  4.1096E-04  4.1096E-04  4.1096E-04  4.1096E-04  4.1096E-04  4.1096E-04
       4.1096E-04  4.1096E-04  4.1096E-04  4.1096E-04  4.1096E-04  4.1096E-04
  46   4.1096E-04  4.1096E-04  4.1096E-04  4.1096E-04  4.1096E-04  4.1096E-04  4.1096E-04  4.1096E-04  4.1096E-04  4.1096E-04
       4.1096E-04  4.1096E-04  4.1096E-04  4.1096E-04  4.1096E-04  4.1096E-04  4.1096E-04  4.1096E-04  4.1096E-04  4.1096E-04
       4.1096E-04  4.1096E-04  4.1096E-04  4.1096E-04  4.1096E-04  4.1096E-04  4.1096E-04  4.1096E-04  4.1096E-04  4.1096E-04
       4.1096E-04  4.1096E-04  4.1096E-04  4.1096E-04  4.1096E-04  4.1096E-04  4.1096E-04  4.1096E-04  4.1096E-04  4.1096E-04
       4.1096E-04  4.1096E-04  4.1096E-04  4.1096E-04  4.1096E-04  4.1096E-04  4.1096E-04  4.1096E-04  4.1096E-04  4.1096E-04
       4.1096E-04  4.1096E-04  4.1096E-04  4.1096E-04  4.1096E-04  4.1096E-04  4.1096E-04  4.1096E-04  4.1096E-04  4.1096E-04
       4.1096E-04  4.1096E-04  4.1096E-04  4.1096E-04  4.1096E-04  4.1096E-04  4.1096E-04  4.1096E-04  4.1096E-04  4.1096E-04
       4.1096E-04  4.1096E-04  4.1096E-04  4.1096E-04  4.1096E-04  4.1096E-04  4.1096E-04  4.1096E-04  4.1096E-04  4.1096E-04
       4.1096E-04  4.1096E-04  4.1096E-04  4.1096E-04  4.1096E-04  4.1096E-04  4.1096E-04  4.1096E-04  4.1096E-04  4.1096E-04
       4.1096E-04  4.1096E-04  4.1096E-04  4.1096E-04  4.1096E-04  4.1096E-04  4.1096E-04  4.1096E-04  4.1096E-04  4.1096E-04
       4.1096E-04  4.1096E-04  4.1096E-04  4.1096E-04  4.1096E-04  4.1096E-04  4.1096E-04  4.1096E-04  4.1096E-04  4.1096E-04
       4.1096E-04  4.1096E-04  4.1096E-04  4.1096E-04  4.1096E-04  4.1096E-04  4.1096E-04  4.1096E-04  4.1096E-04  4.1096E-04
       4.1096E-04  4.1096E-04  4.1096E-04  4.1096E-04  4.1096E-04  4.1096E-04  4.1096E-04  4.1096E-04  4.1096E-04  4.1096E-04
       4.1096E-04  4.1096E-04  4.1096E-04  4.1096E-04  4.1096E-04  4.1096E-04  4.1096E-04  4.1096E-04  4.1096E-04  4.1096E-04
       4.1096E-04  4.1096E-04  4.1096E-04  4.1096E-04  4.1096E-04  4.1096E-04  4.1096E-04  4.1096E-04  4.1096E-04  4.1096E-04
       4.1096E-04  4.1096E-04  4.1096E-04  4.1096E-04  4.1096E-04  4.1096E-04  4.1096E-04  4.1096E-04  4.1096E-04  4.1096E-04
       4.1096E-04  4.1096E-04  4.1096E-04  4.1096E-04  4.1096E-04  4.1096E-04  4.1096E-04  4.1096E-04  4.1096E-04  4.1096E-04
       4.1096E-04  4.1096E-04  4.1096E-04  4.1096E-04  4.1096E-04  4.1096E-04  4.1096E-04  4.1096E-04  4.1096E-04  4.1096E-04
       4.1096E-04  4.1096E-04  4.1096E-04  4.1096E-04  4.1096E-04  4.1096E-04
  47   4.1096E-04  4.1096E-04  4.1096E-04  4.1096E-04  4.1096E-04  4.1096E-04  4.1096E-04  4.1096E-04  4.1096E-04  4.1096E-04
       4.1096E-04  4.1096E-04  4.1096E-04  4.1096E-04  4.1096E-04  4.1096E-04  4.1096E-04  4.1096E-04  4.1096E-04  4.1096E-04
       4.1096E-04  4.1096E-04  4.1096E-04  4.1096E-04  4.1096E-04  4.1096E-04  4.1096E-04  4.1096E-04  4.1096E-04  4.1096E-04
       4.1096E-04  4.1096E-04  4.1096E-04  4.1096E-04  4.1096E-04  4.1096E-04  4.1096E-04  4.1096E-04  4.1096E-04  4.1096E-04
       4.1096E-04  4.1096E-04  4.1096E-04  4.1096E-04  4.1096E-04  4.1096E-04  4.1096E-04  4.1096E-04  4.1096E-04  4.1096E-04
       4.1096E-04  4.1096E-04  4.1096E-04  4.1096E-04  4.1096E-04  4.1096E-04  4.1096E-04  4.1096E-04  4.1096E-04  4.1096E-04
       4.1096E-04  4.1096E-04  4.1096E-04  4.1096E-04  4.1096E-04  4.1096E-04  4.1096E-04  4.1096E-04  4.1096E-04  4.1096E-04
       4.1096E-04  4.1096E-04  4.1096E-04  4.1096E-04  4.1096E-04  4.1096E-04  4.1096E-04  4.1096E-04  4.1096E-04  4.1096E-04
       4.1096E-04  4.1096E-04  4.1096E-04  4.1096E-04  4.1096E-04  4.1096E-04  4.1096E-04  4.1096E-04  4.1096E-04  4.1096E-04
       4.1096E-04  4.1096E-04  4.1096E-04  4.1096E-04  4.1096E-04  4.1096E-04  4.1096E-04  4.1096E-04  4.1096E-04  4.1096E-04
       4.1096E-04  4.1096E-04  4.1096E-04  4.1096E-04  4.1096E-04  4.1096E-04  4.1096E-04  4.1096E-04  4.1096E-04  4.1096E-04
       4.1096E-04  4.1096E-04  4.1096E-04  4.1096E-04  4.1096E-04  4.1096E-04  4.1096E-04  4.1096E-04  4.1096E-04  4.1096E-04
       4.1096E-04  4.1096E-04  4.1096E-04  4.1096E-04  4.1096E-04  4.1096E-04  4.1096E-04  4.1096E-04  4.1096E-04  4.1096E-04
       4.1096E-04  4.1096E-04  4.1096E-04  4.1096E-04  4.1096E-04  4.1096E-04  4.1096E-04  4.1096E-04  4.1096E-04  4.1096E-04
       4.1096E-04  4.1096E-04  4.1096E-04  4.1096E-04  4.1096E-04  4.1096E-04  4.1096E-04  4.1096E-04  4.1096E-04  4.1096E-04
       4.1096E-04  4.1096E-04  4.1096E-04  4.1096E-04  4.1096E-04  4.1096E-04  4.1096E-04  4.1096E-04  4.1096E-04  4.1096E-04
       4.1096E-04  4.1096E-04  4.1096E-04  4.1096E-04  4.1096E-04  4.1096E-04  4.1096E-04  4.1096E-04  4.1096E-04  4.1096E-04
       4.1096E-04  4.1096E-04  4.1096E-04  4.1096E-04  4.1096E-04  4.1096E-04  4.1096E-04  4.1096E-04  4.1096E-04  4.1096E-04
       4.1096E-04  4.1096E-04  4.1096E-04  4.1096E-04  4.1096E-04  4.1096E-04
  48   4.1096E-04  4.1096E-04  4.1096E-04  4.1096E-04  4.1096E-04  4.1096E-04  4.1096E-04  4.1096E-04  4.1096E-04  4.1096E-04
       4.1096E-04  4.1096E-04  4.1096E-04  4.1096E-04  4.1096E-04  4.1096E-04  4.1096E-04  4.1096E-04  4.1096E-04  4.1096E-04
       4.1096E-04  4.1096E-04  4.1096E-04  4.1096E-04  4.1096E-04  4.1096E-04  4.1096E-04  4.1096E-04  4.1096E-04  4.1096E-04
       4.1096E-04  4.1096E-04  4.1096E-04  4.1096E-04  4.1096E-04  4.1096E-04  4.1096E-04  4.1096E-04  4.1096E-04  4.1096E-04
       4.1096E-04  4.1096E-04  4.1096E-04  4.1096E-04  4.1096E-04  4.1096E-04  4.1096E-04  4.1096E-04  4.1096E-04  4.1096E-04
       4.1096E-04  4.1096E-04  4.1096E-04  4.1096E-04  4.1096E-04  4.1096E-04  4.1096E-04  4.1096E-04  4.1096E-04  4.1096E-04
       4.1096E-04  4.1096E-04  4.1096E-04  4.1096E-04  4.1096E-04  4.1096E-04  4.1096E-04  4.1096E-04  4.1096E-04  4.1096E-04
       4.1096E-04  4.1096E-04  4.1096E-04  4.1096E-04  4.1096E-04  4.1096E-04  4.1096E-04  4.1096E-04  4.1096E-04  4.1096E-04
       4.1096E-04  4.1096E-04  4.1096E-04  4.1096E-04  4.1096E-04  4.1096E-04  4.1096E-04  4.1096E-04  4.1096E-04  4.1096E-04
       4.1096E-04  4.1096E-04  4.1096E-04  4.1096E-04  4.1096E-04  4.1096E-04  4.1096E-04  4.1096E-04  4.1096E-04  4.1096E-04
       4.1096E-04  4.1096E-04  4.1096E-04  4.1096E-04  4.1096E-04  4.1096E-04  4.1096E-04  4.1096E-04  4.1096E-04  4.1096E-04
       4.1096E-04  4.1096E-04  4.1096E-04  4.1096E-04  4.1096E-04  4.1096E-04  4.1096E-04  4.1096E-04  4.1096E-04  4.1096E-04
       4.1096E-04  4.1096E-04  4.1096E-04  4.1096E-04  4.1096E-04  4.1096E-04  4.1096E-04  4.1096E-04  4.1096E-04  4.1096E-04
       4.1096E-04  4.1096E-04  4.1096E-04  4.1096E-04  4.1096E-04  4.1096E-04  4.1096E-04  4.1096E-04  4.1096E-04  4.1096E-04
       4.1096E-04  4.1096E-04  4.1096E-04  4.1096E-04  4.1096E-04  4.1096E-04  4.1096E-04  4.1096E-04  4.1096E-04  4.1096E-04
       4.1096E-04  4.1096E-04  4.1096E-04  4.1096E-04  4.1096E-04  4.1096E-04  4.1096E-04  4.1096E-04  4.1096E-04  4.1096E-04
       4.1096E-04  4.1096E-04  4.1096E-04  4.1096E-04  4.1096E-04  4.1096E-04  4.1096E-04  4.1096E-04  4.1096E-04  4.1096E-04
       4.1096E-04  4.1096E-04  4.1096E-04  4.1096E-04  4.1096E-04  4.1096E-04  4.1096E-04  4.1096E-04  4.1096E-04  4.1096E-04
       4.1096E-04  4.1096E-04  4.1096E-04  4.1096E-04  4.1096E-04  4.1096E-04
  49   4.1096E-04  4.1096E-04  4.1096E-04  4.1096E-04  4.1096E-04  4.1096E-04  4.1096E-04  4.1096E-04  4.1096E-04  4.1096E-04
       4.1096E-04  4.1096E-04  4.1096E-04  4.1096E-04  4.1096E-04  4.1096E-04  4.1096E-04  4.1096E-04  4.1096E-04  4.1096E-04
       4.1096E-04  4.1096E-04  4.1096E-04  4.1096E-04  4.1096E-04  4.1096E-04  4.1096E-04  4.1096E-04  4.1096E-04  4.1096E-04
       4.1096E-04  4.1096E-04  4.1096E-04  4.1096E-04  4.1096E-04  4.1096E-04  4.1096E-04  4.1096E-04  4.1096E-04  4.1096E-04
       4.1096E-04  4.1096E-04  4.1096E-04  4.1096E-04  4.1096E-04  4.1096E-04  4.1096E-04  4.1096E-04  4.1096E-04  4.1096E-04
       4.1096E-04  4.1096E-04  4.1096E-04  4.1096E-04  4.1096E-04  4.1096E-04  4.1096E-04  4.1096E-04  4.1096E-04  4.1096E-04
       4.1096E-04  4.1096E-04  4.1096E-04  4.1096E-04  4.1096E-04  4.1096E-04  4.1096E-04  4.1096E-04  4.1096E-04  4.1096E-04
       4.1096E-04  4.1096E-04  4.1096E-04  4.1096E-04  4.1096E-04  4.1096E-04  4.1096E-04  4.1096E-04  4.1096E-04  4.1096E-04
       4.1096E-04  4.1096E-04  4.1096E-04  4.1096E-04  4.1096E-04  4.1096E-04  4.1096E-04  4.1096E-04  4.1096E-04  4.1096E-04
       4.1096E-04  4.1096E-04  4.1096E-04  4.1096E-04  4.1096E-04  4.1096E-04  4.1096E-04  4.1096E-04  4.1096E-04  4.1096E-04
       4.1096E-04  4.1096E-04  4.1096E-04  4.1096E-04  4.1096E-04  4.1096E-04  4.1096E-04  4.1096E-04  4.1096E-04  4.1096E-04
       4.1096E-04  4.1096E-04  4.1096E-04  4.1096E-04  4.1096E-04  4.1096E-04  4.1096E-04  4.1096E-04  4.1096E-04  4.1096E-04
       4.1096E-04  4.1096E-04  4.1096E-04  4.1096E-04  4.1096E-04  4.1096E-04  4.1096E-04  4.1096E-04  4.1096E-04  4.1096E-04
       4.1096E-04  4.1096E-04  4.1096E-04  4.1096E-04  4.1096E-04  4.1096E-04  4.1096E-04  4.1096E-04  4.1096E-04  4.1096E-04
       4.1096E-04  4.1096E-04  4.1096E-04  4.1096E-04  4.1096E-04  4.1096E-04  4.1096E-04  4.1096E-04  4.1096E-04  4.1096E-04
       4.1096E-04  4.1096E-04  4.1096E-04  4.1096E-04  4.1096E-04  4.1096E-04  4.1096E-04  4.1096E-04  4.1096E-04  4.1096E-04
       4.1096E-04  4.1096E-04  4.1096E-04  4.1096E-04  4.1096E-04  4.1096E-04  4.1096E-04  4.1096E-04  4.1096E-04  4.1096E-04
       4.1096E-04  4.1096E-04  4.1096E-04  4.1096E-04  4.1096E-04  4.1096E-04  4.1096E-04  4.1096E-04  4.1096E-04  4.1096E-04
       4.1096E-04  4.1096E-04  4.1096E-04  4.1096E-04  4.1096E-04  4.1096E-04
  50   4.1096E-04  4.1096E-04  4.1096E-04  4.1096E-04  4.1096E-04  4.1096E-04  4.1096E-04  4.1096E-04  4.1096E-04  4.1096E-04
       4.1096E-04  4.1096E-04  4.1096E-04  4.1096E-04  4.1096E-04  4.1096E-04  4.1096E-04  4.1096E-04  4.1096E-04  4.1096E-04
       4.1096E-04  4.1096E-04  4.1096E-04  4.1096E-04  4.1096E-04  4.1096E-04  4.1096E-04  4.1096E-04  4.1096E-04  4.1096E-04
       4.1096E-04  4.1096E-04  4.1096E-04  4.1096E-04  4.1096E-04  4.1096E-04  4.1096E-04  4.1096E-04  4.1096E-04  4.1096E-04
       4.1096E-04  4.1096E-04  4.1096E-04  4.1096E-04  4.1096E-04  4.1096E-04  4.1096E-04  4.1096E-04  4.1096E-04  4.1096E-04
       4.1096E-04  4.1096E-04  4.1096E-04  4.1096E-04  4.1096E-04  4.1096E-04  4.1096E-04  4.1096E-04  4.1096E-04  4.1096E-04
       4.1096E-04  4.1096E-04  4.1096E-04  4.1096E-04  4.1096E-04  4.1096E-04  4.1096E-04  4.1096E-04  4.1096E-04  4.1096E-04
       4.1096E-04  4.1096E-04  4.1096E-04  4.1096E-04  4.1096E-04  4.1096E-04  4.1096E-04  4.1096E-04  4.1096E-04  4.1096E-04
       4.1096E-04  4.1096E-04  4.1096E-04  4.1096E-04  4.1096E-04  4.1096E-04  4.1096E-04  4.1096E-04  4.1096E-04  4.1096E-04
       4.1096E-04  4.1096E-04  4.1096E-04  4.1096E-04  4.1096E-04  4.1096E-04  4.1096E-04  4.1096E-04  4.1096E-04  4.1096E-04
       4.1096E-04  4.1096E-04  4.1096E-04  4.1096E-04  4.1096E-04  4.1096E-04  4.1096E-04  4.1096E-04  4.1096E-04  4.1096E-04
       4.1096E-04  4.1096E-04  4.1096E-04  4.1096E-04  4.1096E-04  4.1096E-04  4.1096E-04  4.1096E-04  4.1096E-04  4.1096E-04
       4.1096E-04  4.1096E-04  4.1096E-04  4.1096E-04  4.1096E-04  4.1096E-04  4.1096E-04  4.1096E-04  4.1096E-04  4.1096E-04
       4.1096E-04  4.1096E-04  4.1096E-04  4.1096E-04  4.1096E-04  4.1096E-04  4.1096E-04  4.1096E-04  4.1096E-04  4.1096E-04
       4.1096E-04  4.1096E-04  4.1096E-04  4.1096E-04  4.1096E-04  4.1096E-04  4.1096E-04  4.1096E-04  4.1096E-04  4.1096E-04
       4.1096E-04  4.1096E-04  4.1096E-04  4.1096E-04  4.1096E-04  4.1096E-04  4.1096E-04  4.1096E-04  4.1096E-04  4.1096E-04
       4.1096E-04  4.1096E-04  4.1096E-04  4.1096E-04  4.1096E-04  4.1096E-04  4.1096E-04  4.1096E-04  4.1096E-04  4.1096E-04
       4.1096E-04  4.1096E-04  4.1096E-04  4.1096E-04  4.1096E-04  4.1096E-04  4.1096E-04  4.1096E-04  4.1096E-04  4.1096E-04
       4.1096E-04  4.1096E-04  4.1096E-04  4.1096E-04  4.1096E-04  4.1096E-04
  51   4.1096E-04  4.1096E-04  4.1096E-04  4.1096E-04  4.1096E-04  4.1096E-04  4.1096E-04  4.1096E-04  4.1096E-04  4.1096E-04
       4.1096E-04  4.1096E-04  4.1096E-04  4.1096E-04  4.1096E-04  4.1096E-04  4.1096E-04  4.1096E-04  4.1096E-04  4.1096E-04
       4.1096E-04  4.1096E-04  4.1096E-04  4.1096E-04  4.1096E-04  4.1096E-04  4.1096E-04  4.1096E-04  4.1096E-04  4.1096E-04
       4.1096E-04  4.1096E-04  4.1096E-04  4.1096E-04  4.1096E-04  4.1096E-04  4.1096E-04  4.1096E-04  4.1096E-04  4.1096E-04
       4.1096E-04  4.1096E-04  4.1096E-04  4.1096E-04  4.1096E-04  4.1096E-04  4.1096E-04  4.1096E-04  4.1096E-04  4.1096E-04
       4.1096E-04  4.1096E-04  4.1096E-04  4.1096E-04  4.1096E-04  4.1096E-04  4.1096E-04  4.1096E-04  4.1096E-04  4.1096E-04
       4.1096E-04  4.1096E-04  4.1096E-04  4.1096E-04  4.1096E-04  4.1096E-04  4.1096E-04  4.1096E-04  4.1096E-04  4.1096E-04
       4.1096E-04  4.1096E-04  4.1096E-04  4.1096E-04  4.1096E-04  4.1096E-04  4.1096E-04  4.1096E-04  4.1096E-04  4.1096E-04
       4.1096E-04  4.1096E-04  4.1096E-04  4.1096E-04  4.1096E-04  4.1096E-04  4.1096E-04  4.1096E-04  4.1096E-04  4.1096E-04
       4.1096E-04  4.1096E-04  4.1096E-04  4.1096E-04  4.1096E-04  4.1096E-04  4.1096E-04  4.1096E-04  4.1096E-04  4.1096E-04
       4.1096E-04  4.1096E-04  4.1096E-04  4.1096E-04  4.1096E-04  4.1096E-04  4.1096E-04  4.1096E-04  4.1096E-04  4.1096E-04
       4.1096E-04  4.1096E-04  4.1096E-04  4.1096E-04  4.1096E-04  4.1096E-04  4.1096E-04  4.1096E-04  4.1096E-04  4.1096E-04
       4.1096E-04  4.1096E-04  4.1096E-04  4.1096E-04  4.1096E-04  4.1096E-04  4.1096E-04  4.1096E-04  4.1096E-04  4.1096E-04
       4.1096E-04  4.1096E-04  4.1096E-04  4.1096E-04  4.1096E-04  4.1096E-04  4.1096E-04  4.1096E-04  4.1096E-04  4.1096E-04
       4.1096E-04  4.1096E-04  4.1096E-04  4.1096E-04  4.1096E-04  4.1096E-04  4.1096E-04  4.1096E-04  4.1096E-04  4.1096E-04
       4.1096E-04  4.1096E-04  4.1096E-04  4.1096E-04  4.1096E-04  4.1096E-04  4.1096E-04  4.1096E-04  4.1096E-04  4.1096E-04
       4.1096E-04  4.1096E-04  4.1096E-04  4.1096E-04  4.1096E-04  4.1096E-04  4.1096E-04  4.1096E-04  4.1096E-04  4.1096E-04
       4.1096E-04  4.1096E-04  4.1096E-04  4.1096E-04  4.1096E-04  4.1096E-04  4.1096E-04  4.1096E-04  4.1096E-04  4.1096E-04
       4.1096E-04  4.1096E-04  4.1096E-04  4.1096E-04  4.1096E-04  4.1096E-04
  52   4.1096E-04  4.1096E-04  4.1096E-04  4.1096E-04  4.1096E-04  4.1096E-04  4.1096E-04  4.1096E-04  4.1096E-04  4.1096E-04
       4.1096E-04  4.1096E-04  4.1096E-04  4.1096E-04  4.1096E-04  4.1096E-04  4.1096E-04  4.1096E-04  4.1096E-04  4.1096E-04
       4.1096E-04  4.1096E-04  4.1096E-04  4.1096E-04  4.1096E-04  4.1096E-04  4.1096E-04  4.1096E-04  4.1096E-04  4.1096E-04
       4.1096E-04  4.1096E-04  4.1096E-04  4.1096E-04  4.1096E-04  4.1096E-04  4.1096E-04  4.1096E-04  4.1096E-04  4.1096E-04
       4.1096E-04  4.1096E-04  4.1096E-04  4.1096E-04  4.1096E-04  4.1096E-04  4.1096E-04  4.1096E-04  4.1096E-04  4.1096E-04
       4.1096E-04  4.1096E-04  4.1096E-04  4.1096E-04  4.1096E-04  4.1096E-04  4.1096E-04  4.1096E-04  4.1096E-04  4.1096E-04
       4.1096E-04  4.1096E-04  4.1096E-04  4.1096E-04  4.1096E-04  4.1096E-04  4.1096E-04  4.1096E-04  4.1096E-04  4.1096E-04
       4.1096E-04  4.1096E-04  4.1096E-04  4.1096E-04  4.1096E-04  4.1096E-04  4.1096E-04  4.1096E-04  4.1096E-04  4.1096E-04
       4.1096E-04  4.1096E-04  4.1096E-04  4.1096E-04  4.1096E-04  4.1096E-04  4.1096E-04  4.1096E-04  4.1096E-04  4.1096E-04
       4.1096E-04  4.1096E-04  4.1096E-04  4.1096E-04  4.1096E-04  4.1096E-04  4.1096E-04  4.1096E-04  4.1096E-04  4.1096E-04
       4.1096E-04  4.1096E-04  4.1096E-04  4.1096E-04  4.1096E-04  4.1096E-04  4.1096E-04  4.1096E-04  4.1096E-04  4.1096E-04
       4.1096E-04  4.1096E-04  4.1096E-04  4.1096E-04  4.1096E-04  4.1096E-04  4.1096E-04  4.1096E-04  4.1096E-04  4.1096E-04
       4.1096E-04  4.1096E-04  4.1096E-04  4.1096E-04  4.1096E-04  4.1096E-04  4.1096E-04  4.1096E-04  4.1096E-04  4.1096E-04
       4.1096E-04  4.1096E-04  4.1096E-04  4.1096E-04  4.1096E-04  4.1096E-04  4.1096E-04  4.1096E-04  4.1096E-04  4.1096E-04
       4.1096E-04  4.1096E-04  4.1096E-04  4.1096E-04  4.1096E-04  4.1096E-04  4.1096E-04  4.1096E-04  4.1096E-04  4.1096E-04
       4.1096E-04  4.1096E-04  4.1096E-04  4.1096E-04  4.1096E-04  4.1096E-04  4.1096E-04  4.1096E-04  4.1096E-04  4.1096E-04
       4.1096E-04  4.1096E-04  4.1096E-04  4.1096E-04  4.1096E-04  4.1096E-04  4.1096E-04  4.1096E-04  4.1096E-04  4.1096E-04
       4.1096E-04  4.1096E-04  4.1096E-04  4.1096E-04  4.1096E-04  4.1096E-04  4.1096E-04  4.1096E-04  4.1096E-04  4.1096E-04
       4.1096E-04  4.1096E-04  4.1096E-04  4.1096E-04  4.1096E-04  4.1096E-04
  53   4.1096E-04  4.1096E-04  4.1096E-04  4.1096E-04  4.1096E-04  4.1096E-04  4.1096E-04  4.1096E-04  4.1096E-04  4.1096E-04
       4.1096E-04  4.1096E-04  4.1096E-04  4.1096E-04  4.1096E-04  4.1096E-04  4.1096E-04  4.1096E-04  4.1096E-04  4.1096E-04
       4.1096E-04  4.1096E-04  4.1096E-04  4.1096E-04  4.1096E-04  4.1096E-04  4.1096E-04  4.1096E-04  4.1096E-04  4.1096E-04
       4.1096E-04  4.1096E-04  4.1096E-04  4.1096E-04  4.1096E-04  4.1096E-04  4.1096E-04  4.1096E-04  4.1096E-04  4.1096E-04
       4.1096E-04  4.1096E-04  4.1096E-04  4.1096E-04  4.1096E-04  4.1096E-04  4.1096E-04  4.1096E-04  4.1096E-04  4.1096E-04
       4.1096E-04  4.1096E-04  4.1096E-04  4.1096E-04  4.1096E-04  4.1096E-04  4.1096E-04  4.1096E-04  4.1096E-04  4.1096E-04
       4.1096E-04  4.1096E-04  4.1096E-04  4.1096E-04  4.1096E-04  4.1096E-04  4.1096E-04  4.1096E-04  4.1096E-04  4.1096E-04
       4.1096E-04  4.1096E-04  4.1096E-04  4.1096E-04  4.1096E-04  4.1096E-04  4.1096E-04  4.1096E-04  4.1096E-04  4.1096E-04
       4.1096E-04  4.1096E-04  4.1096E-04  4.1096E-04  4.1096E-04  4.1096E-04  4.1096E-04  4.1096E-04  4.1096E-04  4.1096E-04
       4.1096E-04  4.1096E-04  4.1096E-04  4.1096E-04  4.1096E-04  4.1096E-04  4.1096E-04  4.1096E-04  4.1096E-04  4.1096E-04
       4.1096E-04  4.1096E-04  4.1096E-04  4.1096E-04  4.1096E-04  4.1096E-04  4.1096E-04  4.1096E-04  4.1096E-04  4.1096E-04
       4.1096E-04  4.1096E-04  4.1096E-04  4.1096E-04  4.1096E-04  4.1096E-04  4.1096E-04  4.1096E-04  4.1096E-04  4.1096E-04
       4.1096E-04  4.1096E-04  4.1096E-04  4.1096E-04  4.1096E-04  4.1096E-04  4.1096E-04  4.1096E-04  4.1096E-04  4.1096E-04
       4.1096E-04  4.1096E-04  4.1096E-04  4.1096E-04  4.1096E-04  4.1096E-04  4.1096E-04  4.1096E-04  4.1096E-04  4.1096E-04
       4.1096E-04  4.1096E-04  4.1096E-04  4.1096E-04  4.1096E-04  4.1096E-04  4.1096E-04  4.1096E-04  4.1096E-04  4.1096E-04
       4.1096E-04  4.1096E-04  4.1096E-04  4.1096E-04  4.1096E-04  4.1096E-04  4.1096E-04  4.1096E-04  4.1096E-04  4.1096E-04
       4.1096E-04  4.1096E-04  4.1096E-04  4.1096E-04  4.1096E-04  4.1096E-04  4.1096E-04  4.1096E-04  4.1096E-04  4.1096E-04
       4.1096E-04  4.1096E-04  4.1096E-04  4.1096E-04  4.1096E-04  4.1096E-04  4.1096E-04  4.1096E-04  4.1096E-04  4.1096E-04
       4.1096E-04  4.1096E-04  4.1096E-04  4.1096E-04  4.1096E-04  4.1096E-04
  54   4.1096E-04  4.1096E-04  4.1096E-04  4.1096E-04  4.1096E-04  4.1096E-04  4.1096E-04  4.1096E-04  4.1096E-04  4.1096E-04
       4.1096E-04  4.1096E-04  4.1096E-04  4.1096E-04  4.1096E-04  4.1096E-04  4.1096E-04  4.1096E-04  4.1096E-04  4.1096E-04
       4.1096E-04  4.1096E-04  4.1096E-04  4.1096E-04  4.1096E-04  4.1096E-04  4.1096E-04  4.1096E-04  4.1096E-04  4.1096E-04
       4.1096E-04  4.1096E-04  4.1096E-04  4.1096E-04  4.1096E-04  4.1096E-04  4.1096E-04  4.1096E-04  4.1096E-04  4.1096E-04
       4.1096E-04  4.1096E-04  4.1096E-04  4.1096E-04  4.1096E-04  4.1096E-04  4.1096E-04  4.1096E-04  4.1096E-04  4.1096E-04
       4.1096E-04  4.1096E-04  4.1096E-04  4.1096E-04  4.1096E-04  4.1096E-04  4.1096E-04  4.1096E-04  4.1096E-04  4.1096E-04
       4.1096E-04  4.1096E-04  4.1096E-04  4.1096E-04  4.1096E-04  4.1096E-04  4.1096E-04  4.1096E-04  4.1096E-04  4.1096E-04
       4.1096E-04  4.1096E-04  4.1096E-04  4.1096E-04  4.1096E-04  4.1096E-04  4.1096E-04  4.1096E-04  4.1096E-04  4.1096E-04
       4.1096E-04  4.1096E-04  4.1096E-04  4.1096E-04  4.1096E-04  4.1096E-04  4.1096E-04  4.1096E-04  4.1096E-04  4.1096E-04
       4.1096E-04  4.1096E-04  4.1096E-04  4.1096E-04  4.1096E-04  4.1096E-04  4.1096E-04  4.1096E-04  4.1096E-04  4.1096E-04
       4.1096E-04  4.1096E-04  4.1096E-04  4.1096E-04  4.1096E-04  4.1096E-04  4.1096E-04  4.1096E-04  4.1096E-04  4.1096E-04
       4.1096E-04  4.1096E-04  4.1096E-04  4.1096E-04  4.1096E-04  4.1096E-04  4.1096E-04  4.1096E-04  4.1096E-04  4.1096E-04
       4.1096E-04  4.1096E-04  4.1096E-04  4.1096E-04  4.1096E-04  4.1096E-04  4.1096E-04  4.1096E-04  4.1096E-04  4.1096E-04
       4.1096E-04  4.1096E-04  4.1096E-04  4.1096E-04  4.1096E-04  4.1096E-04  4.1096E-04  4.1096E-04  4.1096E-04  4.1096E-04
       4.1096E-04  4.1096E-04  4.1096E-04  4.1096E-04  4.1096E-04  4.1096E-04  4.1096E-04  4.1096E-04  4.1096E-04  4.1096E-04
       4.1096E-04  4.1096E-04  4.1096E-04  4.1096E-04  4.1096E-04  4.1096E-04  4.1096E-04  4.1096E-04  4.1096E-04  4.1096E-04
       4.1096E-04  4.1096E-04  4.1096E-04  4.1096E-04  4.1096E-04  4.1096E-04  4.1096E-04  4.1096E-04  4.1096E-04  4.1096E-04
       4.1096E-04  4.1096E-04  4.1096E-04  4.1096E-04  4.1096E-04  4.1096E-04  4.1096E-04  4.1096E-04  4.1096E-04  4.1096E-04
       4.1096E-04  4.1096E-04  4.1096E-04  4.1096E-04  4.1096E-04  4.1096E-04
  55   4.1096E-04  4.1096E-04  4.1096E-04  4.1096E-04  4.1096E-04  4.1096E-04  4.1096E-04  4.1096E-04  4.1096E-04  4.1096E-04
       4.1096E-04  4.1096E-04  4.1096E-04  4.1096E-04  4.1096E-04  4.1096E-04  4.1096E-04  4.1096E-04  4.1096E-04  4.1096E-04
       4.1096E-04  4.1096E-04  4.1096E-04  4.1096E-04  4.1096E-04  4.1096E-04  4.1096E-04  4.1096E-04  4.1096E-04  4.1096E-04
       4.1096E-04  4.1096E-04  4.1096E-04  4.1096E-04  4.1096E-04  4.1096E-04  4.1096E-04  4.1096E-04  4.1096E-04  4.1096E-04
       4.1096E-04  4.1096E-04  4.1096E-04  4.1096E-04  4.1096E-04  4.1096E-04  4.1096E-04  4.1096E-04  4.1096E-04  4.1096E-04
       4.1096E-04  4.1096E-04  4.1096E-04  4.1096E-04  4.1096E-04  4.1096E-04  4.1096E-04  4.1096E-04  4.1096E-04  4.1096E-04
       4.1096E-04  4.1096E-04  4.1096E-04  4.1096E-04  4.1096E-04  4.1096E-04  4.1096E-04  4.1096E-04  4.1096E-04  4.1096E-04
       4.1096E-04  4.1096E-04  4.1096E-04  4.1096E-04  4.1096E-04  4.1096E-04  4.1096E-04  4.1096E-04  4.1096E-04  4.1096E-04
       4.1096E-04  4.1096E-04  4.1096E-04  4.1096E-04  4.1096E-04  4.1096E-04  4.1096E-04  4.1096E-04  4.1096E-04  4.1096E-04
       4.1096E-04  4.1096E-04  4.1096E-04  4.1096E-04  4.1096E-04  4.1096E-04  4.1096E-04  4.1096E-04  4.1096E-04  4.1096E-04
       4.1096E-04  4.1096E-04  4.1096E-04  4.1096E-04  4.1096E-04  4.1096E-04  4.1096E-04  4.1096E-04  4.1096E-04  4.1096E-04
       4.1096E-04  4.1096E-04  4.1096E-04  4.1096E-04  4.1096E-04  4.1096E-04  4.1096E-04  4.1096E-04  4.1096E-04  4.1096E-04
       4.1096E-04  4.1096E-04  4.1096E-04  4.1096E-04  4.1096E-04  4.1096E-04  4.1096E-04  4.1096E-04  4.1096E-04  4.1096E-04
       4.1096E-04  4.1096E-04  4.1096E-04  4.1096E-04   0.000       0.000       0.000       0.000       0.000       0.000    
        0.000       0.000       0.000       0.000       0.000       0.000       0.000       0.000       0.000       0.000    
       4.1096E-04  4.1096E-04  4.1096E-04  4.1096E-04  4.1096E-04  4.1096E-04  4.1096E-04  4.1096E-04  4.1096E-04  4.1096E-04
       4.1096E-04  4.1096E-04  4.1096E-04  4.1096E-04  4.1096E-04  4.1096E-04  4.1096E-04  4.1096E-04  4.1096E-04  4.1096E-04
       4.1096E-04  4.1096E-04  4.1096E-04  4.1096E-04  4.1096E-04  4.1096E-04  4.1096E-04  4.1096E-04  4.1096E-04  4.1096E-04
       4.1096E-04  4.1096E-04  4.1096E-04  4.1096E-04  4.1096E-04  4.1096E-04
  56   4.1096E-04  4.1096E-04  4.1096E-04  4.1096E-04  4.1096E-04  4.1096E-04  4.1096E-04  4.1096E-04  4.1096E-04  4.1096E-04
       4.1096E-04  4.1096E-04  4.1096E-04  4.1096E-04  4.1096E-04  4.1096E-04  4.1096E-04  4.1096E-04  4.1096E-04  4.1096E-04
       4.1096E-04  4.1096E-04  4.1096E-04  4.1096E-04  4.1096E-04  4.1096E-04  4.1096E-04  4.1096E-04  4.1096E-04  4.1096E-04
       4.1096E-04  4.1096E-04  4.1096E-04  4.1096E-04  4.1096E-04  4.1096E-04  4.1096E-04  4.1096E-04  4.1096E-04  4.1096E-04
       4.1096E-04  4.1096E-04  4.1096E-04  4.1096E-04  4.1096E-04  4.1096E-04  4.1096E-04  4.1096E-04  4.1096E-04  4.1096E-04
       4.1096E-04  4.1096E-04  4.1096E-04  4.1096E-04  4.1096E-04  4.1096E-04  4.1096E-04  4.1096E-04  4.1096E-04  4.1096E-04
       4.1096E-04  4.1096E-04  4.1096E-04  4.1096E-04  4.1096E-04  4.1096E-04  4.1096E-04  4.1096E-04  4.1096E-04  4.1096E-04
       4.1096E-04  4.1096E-04  4.1096E-04  4.1096E-04  4.1096E-04  4.1096E-04  4.1096E-04  4.1096E-04  4.1096E-04  4.1096E-04
       4.1096E-04  4.1096E-04  4.1096E-04  4.1096E-04  4.1096E-04  4.1096E-04  4.1096E-04  4.1096E-04  4.1096E-04  4.1096E-04
       4.1096E-04  4.1096E-04  4.1096E-04  4.1096E-04  4.1096E-04  4.1096E-04  4.1096E-04  4.1096E-04  4.1096E-04  4.1096E-04
       4.1096E-04  4.1096E-04  4.1096E-04  4.1096E-04  4.1096E-04  4.1096E-04  4.1096E-04  4.1096E-04  4.1096E-04  4.1096E-04
       4.1096E-04  4.1096E-04  4.1096E-04  4.1096E-04  4.1096E-04  4.1096E-04  4.1096E-04  4.1096E-04  4.1096E-04  4.1096E-04
       4.1096E-04  4.1096E-04  4.1096E-04  4.1096E-04  4.1096E-04  4.1096E-04  4.1096E-04  4.1096E-04  4.1096E-04  4.1096E-04
       4.1096E-04  4.1096E-04  4.1096E-04   0.000       0.000       0.000       0.000       0.000       0.000       0.000    
        0.000       0.000       0.000       0.000       0.000       0.000       0.000       0.000       0.000       0.000    
        0.000       0.000      4.1096E-04  4.1096E-04  4.1096E-04  4.1096E-04  4.1096E-04  4.1096E-04  4.1096E-04  4.1096E-04
       4.1096E-04  4.1096E-04  4.1096E-04  4.1096E-04  4.1096E-04  4.1096E-04  4.1096E-04  4.1096E-04  4.1096E-04  4.1096E-04
       4.1096E-04  4.1096E-04  4.1096E-04  4.1096E-04  4.1096E-04  4.1096E-04  4.1096E-04  4.1096E-04  4.1096E-04  4.1096E-04
       4.1096E-04  4.1096E-04  4.1096E-04  4.1096E-04  4.1096E-04  4.1096E-04
  57   4.1096E-04  4.1096E-04  4.1096E-04  4.1096E-04  4.1096E-04  4.1096E-04  4.1096E-04  4.1096E-04  4.1096E-04  4.1096E-04
       4.1096E-04  4.1096E-04  4.1096E-04  4.1096E-04  4.1096E-04  4.1096E-04  4.1096E-04  4.1096E-04  4.1096E-04  4.1096E-04
       4.1096E-04  4.1096E-04  4.1096E-04  4.1096E-04  4.1096E-04  4.1096E-04  4.1096E-04  4.1096E-04  4.1096E-04  4.1096E-04
       4.1096E-04  4.1096E-04  4.1096E-04  4.1096E-04  4.1096E-04  4.1096E-04  4.1096E-04  4.1096E-04  4.1096E-04  4.1096E-04
       4.1096E-04  4.1096E-04  4.1096E-04  4.1096E-04  4.1096E-04  4.1096E-04  4.1096E-04  4.1096E-04  4.1096E-04  4.1096E-04
       4.1096E-04  4.1096E-04  4.1096E-04  4.1096E-04  4.1096E-04  4.1096E-04  4.1096E-04  4.1096E-04  4.1096E-04  4.1096E-04
       4.1096E-04  4.1096E-04  4.1096E-04  4.1096E-04  4.1096E-04  4.1096E-04  4.1096E-04  4.1096E-04  4.1096E-04  4.1096E-04
       4.1096E-04  4.1096E-04  4.1096E-04  4.1096E-04  4.1096E-04  4.1096E-04  4.1096E-04  4.1096E-04  4.1096E-04  4.1096E-04
       4.1096E-04  4.1096E-04  4.1096E-04  4.1096E-04  4.1096E-04  4.1096E-04  4.1096E-04  4.1096E-04  4.1096E-04  4.1096E-04
       4.1096E-04  4.1096E-04  4.1096E-04  4.1096E-04  4.1096E-04  4.1096E-04  4.1096E-04  4.1096E-04  4.1096E-04  4.1096E-04
       4.1096E-04  4.1096E-04  4.1096E-04  4.1096E-04  4.1096E-04  4.1096E-04  4.1096E-04  4.1096E-04  4.1096E-04  4.1096E-04
       4.1096E-04  4.1096E-04  4.1096E-04  4.1096E-04  4.1096E-04  4.1096E-04  4.1096E-04  4.1096E-04  4.1096E-04  4.1096E-04
       4.1096E-04  4.1096E-04  4.1096E-04  4.1096E-04  4.1096E-04   0.000       0.000       0.000       0.000       0.000    
        0.000       0.000       0.000       0.000       0.000       0.000       0.000       0.000       0.000       0.000    
        0.000       0.000       0.000       0.000       0.000       0.000       0.000       0.000       0.000       0.000    
        0.000       0.000       0.000       0.000      4.1096E-04  4.1096E-04  4.1096E-04  4.1096E-04  4.1096E-04  4.1096E-04
       4.1096E-04  4.1096E-04  4.1096E-04  4.1096E-04  4.1096E-04  4.1096E-04  4.1096E-04  4.1096E-04  4.1096E-04  4.1096E-04
       4.1096E-04  4.1096E-04  4.1096E-04  4.1096E-04  4.1096E-04  4.1096E-04  4.1096E-04  4.1096E-04  4.1096E-04  4.1096E-04
       4.1096E-04  4.1096E-04  4.1096E-04  4.1096E-04  4.1096E-04  4.1096E-04
  58   4.1096E-04  4.1096E-04  4.1096E-04  4.1096E-04  4.1096E-04  4.1096E-04  4.1096E-04  4.1096E-04  4.1096E-04  4.1096E-04
       4.1096E-04  4.1096E-04  4.1096E-04  4.1096E-04  4.1096E-04  4.1096E-04  4.1096E-04  4.1096E-04  4.1096E-04  4.1096E-04
       4.1096E-04  4.1096E-04  4.1096E-04  4.1096E-04  4.1096E-04  4.1096E-04  4.1096E-04  4.1096E-04  4.1096E-04  4.1096E-04
       4.1096E-04  4.1096E-04  4.1096E-04  4.1096E-04  4.1096E-04  4.1096E-04  4.1096E-04  4.1096E-04  4.1096E-04  4.1096E-04
       4.1096E-04  4.1096E-04  4.1096E-04  4.1096E-04  4.1096E-04  4.1096E-04  4.1096E-04  4.1096E-04  4.1096E-04  4.1096E-04
       4.1096E-04  4.1096E-04  4.1096E-04  4.1096E-04  4.1096E-04  4.1096E-04  4.1096E-04  4.1096E-04  4.1096E-04  4.1096E-04
       4.1096E-04  4.1096E-04  4.1096E-04  4.1096E-04  4.1096E-04  4.1096E-04  4.1096E-04  4.1096E-04  4.1096E-04  4.1096E-04
       4.1096E-04  4.1096E-04  4.1096E-04  4.1096E-04  4.1096E-04  4.1096E-04  4.1096E-04  4.1096E-04  4.1096E-04  4.1096E-04
       4.1096E-04  4.1096E-04  4.1096E-04  4.1096E-04  4.1096E-04  4.1096E-04  4.1096E-04  4.1096E-04  4.1096E-04  4.1096E-04
       4.1096E-04  4.1096E-04  4.1096E-04  4.1096E-04  4.1096E-04  4.1096E-04  4.1096E-04  4.1096E-04  4.1096E-04  4.1096E-04
       4.1096E-04  4.1096E-04  4.1096E-04  4.1096E-04  4.1096E-04  4.1096E-04  4.1096E-04  4.1096E-04  4.1096E-04  4.1096E-04
       4.1096E-04  4.1096E-04  4.1096E-04  4.1096E-04  4.1096E-04  4.1096E-04  4.1096E-04  4.1096E-04  4.1096E-04  4.1096E-04
        0.000       0.000       0.000       0.000       0.000       0.000       0.000       0.000       0.000       0.000    
        0.000       0.000       0.000       0.000       0.000       0.000       0.000       0.000       0.000       0.000    
        0.000       0.000       0.000       0.000       0.000       0.000       0.000       0.000       0.000       0.000    
        0.000       0.000       0.000       0.000       0.000      4.1096E-04  4.1096E-04  4.1096E-04  4.1096E-04  4.1096E-04
       4.1096E-04  4.1096E-04  4.1096E-04  4.1096E-04  4.1096E-04  4.1096E-04  4.1096E-04  4.1096E-04  4.1096E-04  4.1096E-04
       4.1096E-04  4.1096E-04  4.1096E-04  4.1096E-04  4.1096E-04  4.1096E-04  4.1096E-04  4.1096E-04  4.1096E-04  4.1096E-04
       4.1096E-04  4.1096E-04  4.1096E-04  4.1096E-04  4.1096E-04  4.1096E-04
  59   4.1096E-04  4.1096E-04  4.1096E-04  4.1096E-04  4.1096E-04  4.1096E-04  4.1096E-04  4.1096E-04  4.1096E-04  4.1096E-04
       4.1096E-04  4.1096E-04  4.1096E-04  4.1096E-04  4.1096E-04  4.1096E-04  4.1096E-04  4.1096E-04  4.1096E-04  4.1096E-04
       4.1096E-04  4.1096E-04  4.1096E-04  4.1096E-04  4.1096E-04  4.1096E-04  4.1096E-04  4.1096E-04  4.1096E-04  4.1096E-04
       4.1096E-04  4.1096E-04  4.1096E-04  4.1096E-04  4.1096E-04  4.1096E-04  4.1096E-04  4.1096E-04  4.1096E-04  4.1096E-04
       4.1096E-04  4.1096E-04  4.1096E-04  4.1096E-04  4.1096E-04  4.1096E-04  4.1096E-04  4.1096E-04  4.1096E-04  4.1096E-04
       4.1096E-04  4.1096E-04  4.1096E-04  4.1096E-04  4.1096E-04  4.1096E-04  4.1096E-04  4.1096E-04  4.1096E-04  4.1096E-04
       4.1096E-04  4.1096E-04  4.1096E-04  4.1096E-04  4.1096E-04  4.1096E-04  4.1096E-04  4.1096E-04  4.1096E-04  4.1096E-04
       4.1096E-04  4.1096E-04  4.1096E-04  4.1096E-04  4.1096E-04  4.1096E-04  4.1096E-04  4.1096E-04  4.1096E-04  4.1096E-04
       4.1096E-04  4.1096E-04  4.1096E-04  4.1096E-04  4.1096E-04  4.1096E-04  4.1096E-04  4.1096E-04  4.1096E-04  4.1096E-04
       4.1096E-04  4.1096E-04  4.1096E-04  4.1096E-04  4.1096E-04  4.1096E-04  4.1096E-04  4.1096E-04  4.1096E-04  4.1096E-04
       4.1096E-04  4.1096E-04  4.1096E-04  4.1096E-04  4.1096E-04  4.1096E-04  4.1096E-04  4.1096E-04  4.1096E-04  4.1096E-04
       4.1096E-04  4.1096E-04  4.1096E-04  4.1096E-04  4.1096E-04  4.1096E-04  4.1096E-04  4.1096E-04  4.1096E-04  4.1096E-04
        0.000       0.000       0.000       0.000       0.000       0.000       0.000       0.000       0.000       0.000    
        0.000       0.000       0.000       0.000       0.000       0.000       0.000       0.000       0.000       0.000    
        0.000       0.000       0.000       0.000       0.000       0.000       0.000       0.000       0.000       0.000    
        0.000       0.000       0.000       0.000       0.000      4.1096E-04  4.1096E-04  4.1096E-04  4.1096E-04  4.1096E-04
       4.1096E-04  4.1096E-04  4.1096E-04  4.1096E-04  4.1096E-04  4.1096E-04  4.1096E-04  4.1096E-04  4.1096E-04  4.1096E-04
       4.1096E-04  4.1096E-04  4.1096E-04  4.1096E-04  4.1096E-04  4.1096E-04  4.1096E-04  4.1096E-04  4.1096E-04  4.1096E-04
       4.1096E-04  4.1096E-04  4.1096E-04  4.1096E-04  4.1096E-04  4.1096E-04
  60   4.1096E-04  4.1096E-04  4.1096E-04  4.1096E-04  4.1096E-04  4.1096E-04  4.1096E-04  4.1096E-04  4.1096E-04  4.1096E-04
       4.1096E-04  4.1096E-04  4.1096E-04  4.1096E-04  4.1096E-04  4.1096E-04  4.1096E-04  4.1096E-04  4.1096E-04  4.1096E-04
       4.1096E-04  4.1096E-04  4.1096E-04  4.1096E-04  4.1096E-04  4.1096E-04  4.1096E-04  4.1096E-04  4.1096E-04  4.1096E-04
       4.1096E-04  4.1096E-04  4.1096E-04  4.1096E-04  4.1096E-04  4.1096E-04  4.1096E-04  4.1096E-04  4.1096E-04  4.1096E-04
       4.1096E-04  4.1096E-04  4.1096E-04  4.1096E-04  4.1096E-04  4.1096E-04  4.1096E-04  4.1096E-04  4.1096E-04  4.1096E-04
       4.1096E-04  4.1096E-04  4.1096E-04  4.1096E-04  4.1096E-04  4.1096E-04  4.1096E-04  4.1096E-04  4.1096E-04  4.1096E-04
       4.1096E-04  4.1096E-04  4.1096E-04  4.1096E-04  4.1096E-04  4.1096E-04  4.1096E-04  4.1096E-04  4.1096E-04  4.1096E-04
       4.1096E-04  4.1096E-04  4.1096E-04  4.1096E-04  4.1096E-04  4.1096E-04  4.1096E-04  4.1096E-04  4.1096E-04  4.1096E-04
       4.1096E-04  4.1096E-04  4.1096E-04  4.1096E-04  4.1096E-04  4.1096E-04  4.1096E-04  4.1096E-04  4.1096E-04  4.1096E-04
       4.1096E-04  4.1096E-04  4.1096E-04  4.1096E-04  4.1096E-04  4.1096E-04  4.1096E-04  4.1096E-04  4.1096E-04  4.1096E-04
       4.1096E-04  4.1096E-04  4.1096E-04  4.1096E-04  4.1096E-04  4.1096E-04  4.1096E-04  4.1096E-04  4.1096E-04  4.1096E-04
       4.1096E-04  4.1096E-04  4.1096E-04  4.1096E-04  4.1096E-04  4.1096E-04  4.1096E-04  4.1096E-04  4.1096E-04  4.1096E-04
        0.000       0.000       0.000       0.000       0.000       0.000       0.000       0.000       0.000       0.000    
        0.000       0.000       0.000       0.000       0.000       0.000       0.000       0.000       0.000       0.000    
        0.000       0.000       0.000       0.000       0.000       0.000       0.000       0.000       0.000       0.000    
        0.000       0.000       0.000       0.000       0.000      4.1096E-04  4.1096E-04  4.1096E-04  4.1096E-04  4.1096E-04
       4.1096E-04  4.1096E-04  4.1096E-04  4.1096E-04  4.1096E-04  4.1096E-04  4.1096E-04  4.1096E-04  4.1096E-04  4.1096E-04
       4.1096E-04  4.1096E-04  4.1096E-04  4.1096E-04  4.1096E-04  4.1096E-04  4.1096E-04  4.1096E-04  4.1096E-04  4.1096E-04
       4.1096E-04  4.1096E-04  4.1096E-04  4.1096E-04  4.1096E-04  4.1096E-04
  61   4.1096E-04  4.1096E-04  4.1096E-04  4.1096E-04  4.1096E-04  4.1096E-04  4.1096E-04  4.1096E-04  4.1096E-04  4.1096E-04
       4.1096E-04  4.1096E-04  4.1096E-04  4.1096E-04  4.1096E-04  4.1096E-04  4.1096E-04  4.1096E-04  4.1096E-04  4.1096E-04
       4.1096E-04  4.1096E-04  4.1096E-04  4.1096E-04  4.1096E-04  4.1096E-04  4.1096E-04  4.1096E-04  4.1096E-04  4.1096E-04
       4.1096E-04  4.1096E-04  4.1096E-04  4.1096E-04  4.1096E-04  4.1096E-04  4.1096E-04  4.1096E-04  4.1096E-04  4.1096E-04
       4.1096E-04  4.1096E-04  4.1096E-04  4.1096E-04  4.1096E-04  4.1096E-04  4.1096E-04  4.1096E-04  4.1096E-04  4.1096E-04
       4.1096E-04  4.1096E-04  4.1096E-04  4.1096E-04  4.1096E-04  4.1096E-04  4.1096E-04  4.1096E-04  4.1096E-04  4.1096E-04
       4.1096E-04  4.1096E-04  4.1096E-04  4.1096E-04  4.1096E-04  4.1096E-04  4.1096E-04  4.1096E-04  4.1096E-04  4.1096E-04
       4.1096E-04  4.1096E-04  4.1096E-04  4.1096E-04  4.1096E-04  4.1096E-04  4.1096E-04  4.1096E-04  4.1096E-04  4.1096E-04
       4.1096E-04  4.1096E-04  4.1096E-04  4.1096E-04  4.1096E-04  4.1096E-04  4.1096E-04  4.1096E-04  4.1096E-04  4.1096E-04
       4.1096E-04  4.1096E-04  4.1096E-04  4.1096E-04  4.1096E-04  4.1096E-04  4.1096E-04  4.1096E-04  4.1096E-04  4.1096E-04
       4.1096E-04  4.1096E-04  4.1096E-04  4.1096E-04  4.1096E-04  4.1096E-04  4.1096E-04  4.1096E-04  4.1096E-04  4.1096E-04
       4.1096E-04  4.1096E-04  4.1096E-04  4.1096E-04  4.1096E-04  4.1096E-04  4.1096E-04  4.1096E-04  4.1096E-04  4.1096E-04
        0.000       0.000       0.000       0.000       0.000       0.000       0.000       0.000       0.000       0.000    
        0.000       0.000       0.000       0.000       0.000       0.000       0.000       0.000       0.000       0.000    
        0.000       0.000       0.000       0.000       0.000       0.000       0.000       0.000       0.000       0.000    
        0.000       0.000       0.000       0.000       0.000       0.000      4.1096E-04  4.1096E-04  4.1096E-04  4.1096E-04
       4.1096E-04  4.1096E-04  4.1096E-04  4.1096E-04  4.1096E-04  4.1096E-04  4.1096E-04  4.1096E-04  4.1096E-04  4.1096E-04
       4.1096E-04  4.1096E-04  4.1096E-04  4.1096E-04  4.1096E-04  4.1096E-04  4.1096E-04  4.1096E-04  4.1096E-04  4.1096E-04
       4.1096E-04  4.1096E-04  4.1096E-04  4.1096E-04  4.1096E-04  4.1096E-04
  62   4.1096E-04  4.1096E-04  4.1096E-04  4.1096E-04  4.1096E-04  4.1096E-04  4.1096E-04  4.1096E-04  4.1096E-04  4.1096E-04
       4.1096E-04  4.1096E-04  4.1096E-04  4.1096E-04  4.1096E-04  4.1096E-04  4.1096E-04  4.1096E-04  4.1096E-04  4.1096E-04
       4.1096E-04  4.1096E-04  4.1096E-04  4.1096E-04  4.1096E-04  4.1096E-04  4.1096E-04  4.1096E-04  4.1096E-04  4.1096E-04
       4.1096E-04  4.1096E-04  4.1096E-04  4.1096E-04  4.1096E-04  4.1096E-04  4.1096E-04  4.1096E-04  4.1096E-04  4.1096E-04
       4.1096E-04  4.1096E-04  4.1096E-04  4.1096E-04  4.1096E-04  4.1096E-04  4.1096E-04  4.1096E-04  4.1096E-04  4.1096E-04
       4.1096E-04  4.1096E-04  4.1096E-04  4.1096E-04  4.1096E-04  4.1096E-04  4.1096E-04  4.1096E-04  4.1096E-04  4.1096E-04
       4.1096E-04  4.1096E-04  4.1096E-04  4.1096E-04  4.1096E-04  4.1096E-04  4.1096E-04  4.1096E-04  4.1096E-04  4.1096E-04
       4.1096E-04  4.1096E-04  4.1096E-04  4.1096E-04  4.1096E-04  4.1096E-04  4.1096E-04  4.1096E-04  4.1096E-04  4.1096E-04
       4.1096E-04  4.1096E-04  4.1096E-04  4.1096E-04  4.1096E-04  4.1096E-04  4.1096E-04  4.1096E-04  4.1096E-04  4.1096E-04
       4.1096E-04  4.1096E-04  4.1096E-04  4.1096E-04  4.1096E-04  4.1096E-04  4.1096E-04  4.1096E-04  4.1096E-04  4.1096E-04
       4.1096E-04  4.1096E-04  4.1096E-04  4.1096E-04  4.1096E-04  4.1096E-04  4.1096E-04  4.1096E-04  4.1096E-04  4.1096E-04
       4.1096E-04  4.1096E-04  4.1096E-04  4.1096E-04  4.1096E-04  4.1096E-04  4.1096E-04  4.1096E-04  4.1096E-04  4.1096E-04
        0.000       0.000       0.000       0.000       0.000       0.000       0.000       0.000       0.000       0.000    
        0.000       0.000       0.000       0.000       0.000       0.000       0.000       0.000       0.000       0.000    
        0.000       0.000       0.000       0.000       0.000       0.000       0.000       0.000       0.000       0.000    
        0.000       0.000       0.000       0.000       0.000       0.000      4.1096E-04  4.1096E-04  4.1096E-04  4.1096E-04
       4.1096E-04  4.1096E-04  4.1096E-04  4.1096E-04  4.1096E-04  4.1096E-04  4.1096E-04  4.1096E-04  4.1096E-04  4.1096E-04
       4.1096E-04  4.1096E-04  4.1096E-04  4.1096E-04  4.1096E-04  4.1096E-04  4.1096E-04  4.1096E-04  4.1096E-04  4.1096E-04
       4.1096E-04  4.1096E-04  4.1096E-04  4.1096E-04  4.1096E-04  4.1096E-04
  63   4.1096E-04  4.1096E-04  4.1096E-04  4.1096E-04  4.1096E-04  4.1096E-04  4.1096E-04  4.1096E-04  4.1096E-04  4.1096E-04
       4.1096E-04  4.1096E-04  4.1096E-04  4.1096E-04  4.1096E-04  4.1096E-04  4.1096E-04  4.1096E-04  4.1096E-04  4.1096E-04
       4.1096E-04  4.1096E-04  4.1096E-04  4.1096E-04  4.1096E-04  4.1096E-04  4.1096E-04  4.1096E-04  4.1096E-04  4.1096E-04
       4.1096E-04  4.1096E-04  4.1096E-04  4.1096E-04  4.1096E-04  4.1096E-04  4.1096E-04  4.1096E-04  4.1096E-04  4.1096E-04
       4.1096E-04  4.1096E-04  4.1096E-04  4.1096E-04  4.1096E-04  4.1096E-04  4.1096E-04  4.1096E-04  4.1096E-04  4.1096E-04
       4.1096E-04  4.1096E-04  4.1096E-04  4.1096E-04  4.1096E-04  4.1096E-04  4.1096E-04  4.1096E-04  4.1096E-04  4.1096E-04
       4.1096E-04  4.1096E-04  4.1096E-04  4.1096E-04  4.1096E-04  4.1096E-04  4.1096E-04  4.1096E-04  4.1096E-04  4.1096E-04
       4.1096E-04  4.1096E-04  4.1096E-04  4.1096E-04  4.1096E-04  4.1096E-04  4.1096E-04  4.1096E-04  4.1096E-04  4.1096E-04
       4.1096E-04  4.1096E-04  4.1096E-04  4.1096E-04  4.1096E-04  4.1096E-04  4.1096E-04  4.1096E-04  4.1096E-04  4.1096E-04
       4.1096E-04  4.1096E-04  4.1096E-04  4.1096E-04  4.1096E-04  4.1096E-04  4.1096E-04  4.1096E-04  4.1096E-04  4.1096E-04
       4.1096E-04  4.1096E-04  4.1096E-04  4.1096E-04  4.1096E-04  4.1096E-04  4.1096E-04  4.1096E-04  4.1096E-04  4.1096E-04
       4.1096E-04  4.1096E-04  4.1096E-04  4.1096E-04  4.1096E-04  4.1096E-04  4.1096E-04  4.1096E-04  4.1096E-04  4.1096E-04
        0.000       0.000       0.000       0.000       0.000       0.000       0.000       0.000       0.000       0.000    
        0.000       0.000       0.000       0.000       0.000       0.000       0.000       0.000       0.000       0.000    
        0.000       0.000       0.000       0.000       0.000       0.000       0.000       0.000       0.000       0.000    
        0.000       0.000       0.000       0.000       0.000       0.000      4.1096E-04  4.1096E-04  4.1096E-04  4.1096E-04
       4.1096E-04  4.1096E-04  4.1096E-04  4.1096E-04  4.1096E-04  4.1096E-04  4.1096E-04  4.1096E-04  4.1096E-04  4.1096E-04
       4.1096E-04  4.1096E-04  4.1096E-04  4.1096E-04  4.1096E-04  4.1096E-04  4.1096E-04  4.1096E-04  4.1096E-04  4.1096E-04
       4.1096E-04  4.1096E-04  4.1096E-04  4.1096E-04  4.1096E-04  4.1096E-04
  64   4.1096E-04  4.1096E-04  4.1096E-04  4.1096E-04  4.1096E-04  4.1096E-04  4.1096E-04  4.1096E-04  4.1096E-04  4.1096E-04
       4.1096E-04  4.1096E-04  4.1096E-04  4.1096E-04  4.1096E-04  4.1096E-04  4.1096E-04  4.1096E-04  4.1096E-04  4.1096E-04
       4.1096E-04  4.1096E-04  4.1096E-04  4.1096E-04  4.1096E-04  4.1096E-04  4.1096E-04  4.1096E-04  4.1096E-04  4.1096E-04
       4.1096E-04  4.1096E-04  4.1096E-04  4.1096E-04  4.1096E-04  4.1096E-04  4.1096E-04  4.1096E-04  4.1096E-04  4.1096E-04
       4.1096E-04  4.1096E-04  4.1096E-04  4.1096E-04  4.1096E-04  4.1096E-04  4.1096E-04  4.1096E-04  4.1096E-04  4.1096E-04
       4.1096E-04  4.1096E-04  4.1096E-04  4.1096E-04  4.1096E-04  4.1096E-04  4.1096E-04  4.1096E-04  4.1096E-04  4.1096E-04
       4.1096E-04  4.1096E-04  4.1096E-04  4.1096E-04  4.1096E-04  4.1096E-04  4.1096E-04  4.1096E-04  4.1096E-04  4.1096E-04
       4.1096E-04  4.1096E-04  4.1096E-04  4.1096E-04  4.1096E-04  4.1096E-04  4.1096E-04  4.1096E-04  4.1096E-04  4.1096E-04
       4.1096E-04  4.1096E-04  4.1096E-04  4.1096E-04  4.1096E-04  4.1096E-04  4.1096E-04  4.1096E-04  4.1096E-04  4.1096E-04
       4.1096E-04  4.1096E-04  4.1096E-04  4.1096E-04  4.1096E-04  4.1096E-04  4.1096E-04  4.1096E-04  4.1096E-04  4.1096E-04
       4.1096E-04  4.1096E-04  4.1096E-04  4.1096E-04  4.1096E-04  4.1096E-04  4.1096E-04  4.1096E-04  4.1096E-04  4.1096E-04
       4.1096E-04  4.1096E-04  4.1096E-04  4.1096E-04  4.1096E-04  4.1096E-04  4.1096E-04  4.1096E-04  4.1096E-04  4.1096E-04
        0.000       0.000       0.000       0.000       0.000       0.000       0.000       0.000       0.000       0.000    
        0.000       0.000       0.000       0.000       0.000       0.000       0.000       0.000       0.000       0.000    
        0.000       0.000       0.000       0.000       0.000       0.000       0.000       0.000       0.000       0.000    
        0.000       0.000       0.000       0.000       0.000       0.000      4.1096E-04  4.1096E-04  4.1096E-04  4.1096E-04
       4.1096E-04  4.1096E-04  4.1096E-04  4.1096E-04  4.1096E-04  4.1096E-04  4.1096E-04  4.1096E-04  4.1096E-04  4.1096E-04
       4.1096E-04  4.1096E-04  4.1096E-04  4.1096E-04  4.1096E-04  4.1096E-04  4.1096E-04  4.1096E-04  4.1096E-04  4.1096E-04
       4.1096E-04  4.1096E-04  4.1096E-04  4.1096E-04  4.1096E-04  4.1096E-04
  65   4.1096E-04  4.1096E-04  4.1096E-04  4.1096E-04  4.1096E-04  4.1096E-04  4.1096E-04  4.1096E-04  4.1096E-04  4.1096E-04
       4.1096E-04  4.1096E-04  4.1096E-04  4.1096E-04  4.1096E-04  4.1096E-04  4.1096E-04  4.1096E-04  4.1096E-04  4.1096E-04
       4.1096E-04  4.1096E-04  4.1096E-04  4.1096E-04  4.1096E-04  4.1096E-04  4.1096E-04  4.1096E-04  4.1096E-04  4.1096E-04
       4.1096E-04  4.1096E-04  4.1096E-04  4.1096E-04  4.1096E-04  4.1096E-04  4.1096E-04  4.1096E-04  4.1096E-04  4.1096E-04
       4.1096E-04  4.1096E-04  4.1096E-04  4.1096E-04  4.1096E-04  4.1096E-04  4.1096E-04  4.1096E-04  4.1096E-04  4.1096E-04
       4.1096E-04  4.1096E-04  4.1096E-04  4.1096E-04  4.1096E-04  4.1096E-04  4.1096E-04  4.1096E-04  4.1096E-04  4.1096E-04
       4.1096E-04  4.1096E-04  4.1096E-04  4.1096E-04  4.1096E-04  4.1096E-04  4.1096E-04  4.1096E-04  4.1096E-04  4.1096E-04
       4.1096E-04  4.1096E-04  4.1096E-04  4.1096E-04  4.1096E-04  4.1096E-04  4.1096E-04  4.1096E-04  4.1096E-04  4.1096E-04
       4.1096E-04  4.1096E-04  4.1096E-04  4.1096E-04  4.1096E-04  4.1096E-04  4.1096E-04  4.1096E-04  4.1096E-04  4.1096E-04
       4.1096E-04  4.1096E-04  4.1096E-04  4.1096E-04  4.1096E-04  4.1096E-04  4.1096E-04  4.1096E-04  4.1096E-04  4.1096E-04
       4.1096E-04  4.1096E-04  4.1096E-04  4.1096E-04  4.1096E-04  4.1096E-04  4.1096E-04  4.1096E-04  4.1096E-04  4.1096E-04
       4.1096E-04  4.1096E-04  4.1096E-04  4.1096E-04  4.1096E-04  4.1096E-04  4.1096E-04  4.1096E-04  4.1096E-04  4.1096E-04
        0.000       0.000       0.000       0.000       0.000       0.000       0.000       0.000       0.000       0.000    
        0.000       0.000       0.000       0.000       0.000       0.000       0.000       0.000       0.000       0.000    
        0.000       0.000       0.000       0.000       0.000       0.000       0.000       0.000       0.000       0.000    
        0.000       0.000       0.000       0.000       0.000       0.000      4.1096E-04  4.1096E-04  4.1096E-04  4.1096E-04
       4.1096E-04  4.1096E-04  4.1096E-04  4.1096E-04  4.1096E-04  4.1096E-04  4.1096E-04  4.1096E-04  4.1096E-04  4.1096E-04
       4.1096E-04  4.1096E-04  4.1096E-04  4.1096E-04  4.1096E-04  4.1096E-04  4.1096E-04  4.1096E-04  4.1096E-04  4.1096E-04
       4.1096E-04  4.1096E-04  4.1096E-04  4.1096E-04  4.1096E-04  4.1096E-04
  66   4.1096E-04  4.1096E-04  4.1096E-04  4.1096E-04  4.1096E-04  4.1096E-04  4.1096E-04  4.1096E-04  4.1096E-04  4.1096E-04
       4.1096E-04  4.1096E-04  4.1096E-04  4.1096E-04  4.1096E-04  4.1096E-04  4.1096E-04  4.1096E-04  4.1096E-04  4.1096E-04
       4.1096E-04  4.1096E-04  4.1096E-04  4.1096E-04  4.1096E-04  4.1096E-04  4.1096E-04  4.1096E-04  4.1096E-04  4.1096E-04
       4.1096E-04  4.1096E-04  4.1096E-04  4.1096E-04  4.1096E-04  4.1096E-04  4.1096E-04  4.1096E-04  4.1096E-04  4.1096E-04
       4.1096E-04  4.1096E-04  4.1096E-04  4.1096E-04  4.1096E-04  4.1096E-04  4.1096E-04  4.1096E-04  4.1096E-04  4.1096E-04
       4.1096E-04  4.1096E-04  4.1096E-04  4.1096E-04  4.1096E-04  4.1096E-04  4.1096E-04  4.1096E-04  4.1096E-04  4.1096E-04
       4.1096E-04  4.1096E-04  4.1096E-04  4.1096E-04  4.1096E-04  4.1096E-04  4.1096E-04  4.1096E-04  4.1096E-04  4.1096E-04
       4.1096E-04  4.1096E-04  4.1096E-04  4.1096E-04  4.1096E-04  4.1096E-04  4.1096E-04  4.1096E-04  4.1096E-04  4.1096E-04
       4.1096E-04  4.1096E-04  4.1096E-04  4.1096E-04  4.1096E-04  4.1096E-04  4.1096E-04  4.1096E-04  4.1096E-04  4.1096E-04
       4.1096E-04  4.1096E-04  4.1096E-04  4.1096E-04  4.1096E-04  4.1096E-04  4.1096E-04  4.1096E-04  4.1096E-04  4.1096E-04
       4.1096E-04  4.1096E-04  4.1096E-04  4.1096E-04  4.1096E-04  4.1096E-04  4.1096E-04  4.1096E-04  4.1096E-04  4.1096E-04
       4.1096E-04  4.1096E-04  4.1096E-04  4.1096E-04  4.1096E-04  4.1096E-04  4.1096E-04  4.1096E-04  4.1096E-04  4.1096E-04
        0.000       0.000       0.000       0.000       0.000       0.000       0.000       0.000       0.000       0.000    
        0.000       0.000       0.000       0.000       0.000       0.000       0.000       0.000       0.000       0.000    
        0.000       0.000       0.000       0.000       0.000       0.000       0.000       0.000       0.000       0.000    
        0.000       0.000       0.000       0.000       0.000       0.000      4.1096E-04  4.1096E-04  4.1096E-04  4.1096E-04
       4.1096E-04  4.1096E-04  4.1096E-04  4.1096E-04  4.1096E-04  4.1096E-04  4.1096E-04  4.1096E-04  4.1096E-04  4.1096E-04
       4.1096E-04  4.1096E-04  4.1096E-04  4.1096E-04  4.1096E-04  4.1096E-04  4.1096E-04  4.1096E-04  4.1096E-04  4.1096E-04
       4.1096E-04  4.1096E-04  4.1096E-04  4.1096E-04  4.1096E-04  4.1096E-04
  67   4.1096E-04  4.1096E-04  4.1096E-04  4.1096E-04  4.1096E-04  4.1096E-04  4.1096E-04  4.1096E-04  4.1096E-04  4.1096E-04
       4.1096E-04  4.1096E-04  4.1096E-04  4.1096E-04  4.1096E-04  4.1096E-04  4.1096E-04  4.1096E-04  4.1096E-04  4.1096E-04
       4.1096E-04  4.1096E-04  4.1096E-04  4.1096E-04  4.1096E-04  4.1096E-04  4.1096E-04  4.1096E-04  4.1096E-04  4.1096E-04
       4.1096E-04  4.1096E-04  4.1096E-04  4.1096E-04  4.1096E-04  4.1096E-04  4.1096E-04  4.1096E-04  4.1096E-04  4.1096E-04
       4.1096E-04  4.1096E-04  4.1096E-04  4.1096E-04  4.1096E-04  4.1096E-04  4.1096E-04  4.1096E-04  4.1096E-04  4.1096E-04
       4.1096E-04  4.1096E-04  4.1096E-04  4.1096E-04  4.1096E-04  4.1096E-04  4.1096E-04  4.1096E-04  4.1096E-04  4.1096E-04
       4.1096E-04  4.1096E-04  4.1096E-04  4.1096E-04  4.1096E-04  4.1096E-04  4.1096E-04  4.1096E-04  4.1096E-04  4.1096E-04
       4.1096E-04  4.1096E-04  4.1096E-04  4.1096E-04  4.1096E-04  4.1096E-04  4.1096E-04  4.1096E-04  4.1096E-04  4.1096E-04
       4.1096E-04  4.1096E-04  4.1096E-04  4.1096E-04  4.1096E-04  4.1096E-04  4.1096E-04  4.1096E-04  4.1096E-04  4.1096E-04
       4.1096E-04  4.1096E-04  4.1096E-04  4.1096E-04  4.1096E-04  4.1096E-04  4.1096E-04  4.1096E-04  4.1096E-04  4.1096E-04
       4.1096E-04  4.1096E-04  4.1096E-04  4.1096E-04  4.1096E-04  4.1096E-04  4.1096E-04  4.1096E-04  4.1096E-04  4.1096E-04
       4.1096E-04  4.1096E-04  4.1096E-04  4.1096E-04  4.1096E-04  4.1096E-04  4.1096E-04  4.1096E-04  4.1096E-04  4.1096E-04
        0.000       0.000       0.000       0.000       0.000       0.000       0.000       0.000       0.000       0.000    
        0.000       0.000       0.000       0.000       0.000       0.000       0.000       0.000       0.000       0.000    
        0.000       0.000       0.000       0.000       0.000       0.000       0.000       0.000       0.000       0.000    
        0.000       0.000       0.000       0.000       0.000      4.1096E-04  4.1096E-04  4.1096E-04  4.1096E-04  4.1096E-04
       4.1096E-04  4.1096E-04  4.1096E-04  4.1096E-04  4.1096E-04  4.1096E-04  4.1096E-04  4.1096E-04  4.1096E-04  4.1096E-04
       4.1096E-04  4.1096E-04  4.1096E-04  4.1096E-04  4.1096E-04  4.1096E-04  4.1096E-04  4.1096E-04  4.1096E-04  4.1096E-04
       4.1096E-04  4.1096E-04  4.1096E-04  4.1096E-04  4.1096E-04  4.1096E-04
  68   4.1096E-04  4.1096E-04  4.1096E-04  4.1096E-04  4.1096E-04  4.1096E-04  4.1096E-04  4.1096E-04  4.1096E-04  4.1096E-04
       4.1096E-04  4.1096E-04  4.1096E-04  4.1096E-04  4.1096E-04  4.1096E-04  4.1096E-04  4.1096E-04  4.1096E-04  4.1096E-04
       4.1096E-04  4.1096E-04  4.1096E-04  4.1096E-04  4.1096E-04  4.1096E-04  4.1096E-04  4.1096E-04  4.1096E-04  4.1096E-04
       4.1096E-04  4.1096E-04  4.1096E-04  4.1096E-04  4.1096E-04  4.1096E-04  4.1096E-04  4.1096E-04  4.1096E-04  4.1096E-04
       4.1096E-04  4.1096E-04  4.1096E-04  4.1096E-04  4.1096E-04  4.1096E-04  4.1096E-04  4.1096E-04  4.1096E-04  4.1096E-04
       4.1096E-04  4.1096E-04  4.1096E-04  4.1096E-04  4.1096E-04  4.1096E-04  4.1096E-04  4.1096E-04  4.1096E-04  4.1096E-04
       4.1096E-04  4.1096E-04  4.1096E-04  4.1096E-04  4.1096E-04  4.1096E-04  4.1096E-04  4.1096E-04  4.1096E-04  4.1096E-04
       4.1096E-04  4.1096E-04  4.1096E-04  4.1096E-04  4.1096E-04  4.1096E-04  4.1096E-04  4.1096E-04  4.1096E-04  4.1096E-04
       4.1096E-04  4.1096E-04  4.1096E-04  4.1096E-04  4.1096E-04  4.1096E-04  4.1096E-04  4.1096E-04  4.1096E-04  4.1096E-04
       4.1096E-04  4.1096E-04  4.1096E-04  4.1096E-04  4.1096E-04  4.1096E-04  4.1096E-04  4.1096E-04  4.1096E-04  4.1096E-04
       4.1096E-04  4.1096E-04  4.1096E-04  4.1096E-04  4.1096E-04  4.1096E-04  4.1096E-04  4.1096E-04  4.1096E-04  4.1096E-04
       4.1096E-04  4.1096E-04  4.1096E-04  4.1096E-04  4.1096E-04  4.1096E-04  4.1096E-04  4.1096E-04  4.1096E-04  4.1096E-04
        0.000       0.000       0.000       0.000       0.000       0.000       0.000       0.000       0.000       0.000    
        0.000       0.000       0.000       0.000       0.000       0.000       0.000       0.000       0.000       0.000    
        0.000       0.000       0.000       0.000       0.000       0.000       0.000       0.000       0.000       0.000    
        0.000       0.000       0.000      4.1096E-04  4.1096E-04  4.1096E-04  4.1096E-04  4.1096E-04  4.1096E-04  4.1096E-04
       4.1096E-04  4.1096E-04  4.1096E-04  4.1096E-04  4.1096E-04  4.1096E-04  4.1096E-04  4.1096E-04  4.1096E-04  4.1096E-04
       4.1096E-04  4.1096E-04  4.1096E-04  4.1096E-04  4.1096E-04  4.1096E-04  4.1096E-04  4.1096E-04  4.1096E-04  4.1096E-04
       4.1096E-04  4.1096E-04  4.1096E-04  4.1096E-04  4.1096E-04  4.1096E-04
  69   4.1096E-04  4.1096E-04  4.1096E-04  4.1096E-04  4.1096E-04  4.1096E-04  4.1096E-04  4.1096E-04  4.1096E-04  4.1096E-04
       4.1096E-04  4.1096E-04  4.1096E-04  4.1096E-04  4.1096E-04  4.1096E-04  4.1096E-04  4.1096E-04  4.1096E-04  4.1096E-04
       4.1096E-04  4.1096E-04  4.1096E-04  4.1096E-04  4.1096E-04  4.1096E-04  4.1096E-04  4.1096E-04  4.1096E-04  4.1096E-04
       4.1096E-04  4.1096E-04  4.1096E-04  4.1096E-04  4.1096E-04  4.1096E-04  4.1096E-04  4.1096E-04  4.1096E-04  4.1096E-04
       4.1096E-04  4.1096E-04  4.1096E-04  4.1096E-04  4.1096E-04  4.1096E-04  4.1096E-04  4.1096E-04  4.1096E-04  4.1096E-04
       4.1096E-04  4.1096E-04  4.1096E-04  4.1096E-04  4.1096E-04  4.1096E-04  4.1096E-04  4.1096E-04  4.1096E-04  4.1096E-04
       4.1096E-04  4.1096E-04  4.1096E-04  4.1096E-04  4.1096E-04  4.1096E-04  4.1096E-04  4.1096E-04  4.1096E-04  4.1096E-04
       4.1096E-04  4.1096E-04  4.1096E-04  4.1096E-04  4.1096E-04  4.1096E-04  4.1096E-04  4.1096E-04  4.1096E-04  4.1096E-04
       4.1096E-04  4.1096E-04  4.1096E-04  4.1096E-04  4.1096E-04  4.1096E-04  4.1096E-04  4.1096E-04  4.1096E-04  4.1096E-04
       4.1096E-04  4.1096E-04  4.1096E-04  4.1096E-04  4.1096E-04  4.1096E-04  4.1096E-04  4.1096E-04  4.1096E-04  4.1096E-04
       4.1096E-04  4.1096E-04  4.1096E-04  4.1096E-04  4.1096E-04  4.1096E-04  4.1096E-04  4.1096E-04  4.1096E-04  4.1096E-04
       4.1096E-04  4.1096E-04  4.1096E-04  4.1096E-04  4.1096E-04  4.1096E-04  4.1096E-04  4.1096E-04  4.1096E-04  4.1096E-04
       4.1096E-04  4.1096E-04  4.1096E-04  4.1096E-04  4.1096E-04  4.1096E-04  4.1096E-04   0.000       0.000       0.000    
        0.000       0.000       0.000       0.000       0.000       0.000       0.000       0.000       0.000       0.000    
        0.000       0.000       0.000       0.000       0.000       0.000      4.1096E-04  4.1096E-04  4.1096E-04  4.1096E-04
       4.1096E-04  4.1096E-04  4.1096E-04  4.1096E-04  4.1096E-04  4.1096E-04  4.1096E-04  4.1096E-04  4.1096E-04  4.1096E-04
       4.1096E-04  4.1096E-04  4.1096E-04  4.1096E-04  4.1096E-04  4.1096E-04  4.1096E-04  4.1096E-04  4.1096E-04  4.1096E-04
       4.1096E-04  4.1096E-04  4.1096E-04  4.1096E-04  4.1096E-04  4.1096E-04  4.1096E-04  4.1096E-04  4.1096E-04  4.1096E-04
       4.1096E-04  4.1096E-04  4.1096E-04  4.1096E-04  4.1096E-04  4.1096E-04
  70   4.1096E-04  4.1096E-04  4.1096E-04  4.1096E-04  4.1096E-04  4.1096E-04  4.1096E-04  4.1096E-04  4.1096E-04  4.1096E-04
       4.1096E-04  4.1096E-04  4.1096E-04  4.1096E-04  4.1096E-04  4.1096E-04  4.1096E-04  4.1096E-04  4.1096E-04  4.1096E-04
       4.1096E-04  4.1096E-04  4.1096E-04  4.1096E-04  4.1096E-04  4.1096E-04  4.1096E-04  4.1096E-04  4.1096E-04  4.1096E-04
       4.1096E-04  4.1096E-04  4.1096E-04  4.1096E-04  4.1096E-04  4.1096E-04  4.1096E-04  4.1096E-04  4.1096E-04  4.1096E-04
       4.1096E-04  4.1096E-04  4.1096E-04  4.1096E-04  4.1096E-04  4.1096E-04  4.1096E-04  4.1096E-04  4.1096E-04  4.1096E-04
       4.1096E-04  4.1096E-04  4.1096E-04  4.1096E-04  4.1096E-04  4.1096E-04  4.1096E-04  4.1096E-04  4.1096E-04  4.1096E-04
       4.1096E-04  4.1096E-04  4.1096E-04  4.1096E-04  4.1096E-04  4.1096E-04  4.1096E-04  4.1096E-04  4.1096E-04  4.1096E-04
       4.1096E-04  4.1096E-04  4.1096E-04  4.1096E-04  4.1096E-04  4.1096E-04  4.1096E-04  4.1096E-04  4.1096E-04  4.1096E-04
       4.1096E-04  4.1096E-04  4.1096E-04  4.1096E-04  4.1096E-04  4.1096E-04  4.1096E-04  4.1096E-04  4.1096E-04  4.1096E-04
       4.1096E-04  4.1096E-04  4.1096E-04  4.1096E-04  4.1096E-04  4.1096E-04  4.1096E-04  4.1096E-04  4.1096E-04  4.1096E-04
       4.1096E-04  4.1096E-04  4.1096E-04  4.1096E-04  4.1096E-04  4.1096E-04  4.1096E-04  4.1096E-04  4.1096E-04  4.1096E-04
       4.1096E-04  4.1096E-04  4.1096E-04  4.1096E-04  4.1096E-04  4.1096E-04  4.1096E-04  4.1096E-04  4.1096E-04  4.1096E-04
       4.1096E-04  4.1096E-04  4.1096E-04  4.1096E-04  4.1096E-04  4.1096E-04  4.1096E-04  4.1096E-04  4.1096E-04  4.1096E-04
       4.1096E-04  4.1096E-04  4.1096E-04  4.1096E-04  4.1096E-04  4.1096E-04  4.1096E-04  4.1096E-04  4.1096E-04  4.1096E-04
       4.1096E-04  4.1096E-04  4.1096E-04  4.1096E-04  4.1096E-04  4.1096E-04  4.1096E-04  4.1096E-04  4.1096E-04  4.1096E-04
       4.1096E-04  4.1096E-04  4.1096E-04  4.1096E-04  4.1096E-04  4.1096E-04  4.1096E-04  4.1096E-04  4.1096E-04  4.1096E-04
       4.1096E-04  4.1096E-04  4.1096E-04  4.1096E-04  4.1096E-04  4.1096E-04  4.1096E-04  4.1096E-04  4.1096E-04  4.1096E-04
       4.1096E-04  4.1096E-04  4.1096E-04  4.1096E-04  4.1096E-04  4.1096E-04  4.1096E-04  4.1096E-04  4.1096E-04  4.1096E-04
       4.1096E-04  4.1096E-04  4.1096E-04  4.1096E-04  4.1096E-04  4.1096E-04
  71   4.1096E-04  4.1096E-04  4.1096E-04  4.1096E-04  4.1096E-04  4.1096E-04  4.1096E-04  4.1096E-04  4.1096E-04  4.1096E-04
       4.1096E-04  4.1096E-04  4.1096E-04  4.1096E-04  4.1096E-04  4.1096E-04  4.1096E-04  4.1096E-04  4.1096E-04  4.1096E-04
       4.1096E-04  4.1096E-04  4.1096E-04  4.1096E-04  4.1096E-04  4.1096E-04  4.1096E-04  4.1096E-04  4.1096E-04  4.1096E-04
       4.1096E-04  4.1096E-04  4.1096E-04  4.1096E-04  4.1096E-04  4.1096E-04  4.1096E-04  4.1096E-04  4.1096E-04  4.1096E-04
       4.1096E-04  4.1096E-04  4.1096E-04  4.1096E-04  4.1096E-04  4.1096E-04  4.1096E-04  4.1096E-04  4.1096E-04  4.1096E-04
       4.1096E-04  4.1096E-04  4.1096E-04  4.1096E-04  4.1096E-04  4.1096E-04  4.1096E-04  4.1096E-04  4.1096E-04  4.1096E-04
       4.1096E-04  4.1096E-04  4.1096E-04  4.1096E-04  4.1096E-04  4.1096E-04  4.1096E-04  4.1096E-04  4.1096E-04  4.1096E-04
       4.1096E-04  4.1096E-04  4.1096E-04  4.1096E-04  4.1096E-04  4.1096E-04  4.1096E-04  4.1096E-04  4.1096E-04  4.1096E-04
       4.1096E-04  4.1096E-04  4.1096E-04  4.1096E-04  4.1096E-04  4.1096E-04  4.1096E-04  4.1096E-04  4.1096E-04  4.1096E-04
       4.1096E-04  4.1096E-04  4.1096E-04  4.1096E-04  4.1096E-04  4.1096E-04  4.1096E-04  4.1096E-04  4.1096E-04  4.1096E-04
       4.1096E-04  4.1096E-04  4.1096E-04  4.1096E-04  4.1096E-04  4.1096E-04  4.1096E-04  4.1096E-04  4.1096E-04  4.1096E-04
       4.1096E-04  4.1096E-04  4.1096E-04  4.1096E-04  4.1096E-04  4.1096E-04  4.1096E-04  4.1096E-04  4.1096E-04  4.1096E-04
       4.1096E-04  4.1096E-04  4.1096E-04  4.1096E-04  4.1096E-04  4.1096E-04  4.1096E-04  4.1096E-04  4.1096E-04  4.1096E-04
       4.1096E-04  4.1096E-04  4.1096E-04  4.1096E-04  4.1096E-04  4.1096E-04  4.1096E-04  4.1096E-04  4.1096E-04  4.1096E-04
       4.1096E-04  4.1096E-04  4.1096E-04  4.1096E-04  4.1096E-04  4.1096E-04  4.1096E-04  4.1096E-04  4.1096E-04  4.1096E-04
       4.1096E-04  4.1096E-04  4.1096E-04  4.1096E-04  4.1096E-04  4.1096E-04  4.1096E-04  4.1096E-04  4.1096E-04  4.1096E-04
       4.1096E-04  4.1096E-04  4.1096E-04  4.1096E-04  4.1096E-04  4.1096E-04  4.1096E-04  4.1096E-04  4.1096E-04  4.1096E-04
       4.1096E-04  4.1096E-04  4.1096E-04  4.1096E-04  4.1096E-04  4.1096E-04  4.1096E-04  4.1096E-04  4.1096E-04  4.1096E-04
       4.1096E-04  4.1096E-04  4.1096E-04  4.1096E-04  4.1096E-04  4.1096E-04
  72   4.1096E-04  4.1096E-04  4.1096E-04  4.1096E-04  4.1096E-04  4.1096E-04  4.1096E-04  4.1096E-04  4.1096E-04  4.1096E-04
       4.1096E-04  4.1096E-04  4.1096E-04  4.1096E-04  4.1096E-04  4.1096E-04  4.1096E-04  4.1096E-04  4.1096E-04  4.1096E-04
       4.1096E-04  4.1096E-04  4.1096E-04  4.1096E-04  4.1096E-04  4.1096E-04  4.1096E-04  4.1096E-04  4.1096E-04  4.1096E-04
       4.1096E-04  4.1096E-04  4.1096E-04  4.1096E-04  4.1096E-04  4.1096E-04  4.1096E-04  4.1096E-04  4.1096E-04  4.1096E-04
       4.1096E-04  4.1096E-04  4.1096E-04  4.1096E-04  4.1096E-04  4.1096E-04  4.1096E-04  4.1096E-04  4.1096E-04  4.1096E-04
       4.1096E-04  4.1096E-04  4.1096E-04  4.1096E-04  4.1096E-04  4.1096E-04  4.1096E-04  4.1096E-04  4.1096E-04  4.1096E-04
       4.1096E-04  4.1096E-04  4.1096E-04  4.1096E-04  4.1096E-04  4.1096E-04  4.1096E-04  4.1096E-04  4.1096E-04  4.1096E-04
       4.1096E-04  4.1096E-04  4.1096E-04  4.1096E-04  4.1096E-04  4.1096E-04  4.1096E-04  4.1096E-04  4.1096E-04  4.1096E-04
       4.1096E-04  4.1096E-04  4.1096E-04  4.1096E-04  4.1096E-04  4.1096E-04  4.1096E-04  4.1096E-04  4.1096E-04  4.1096E-04
       4.1096E-04  4.1096E-04  4.1096E-04  4.1096E-04  4.1096E-04  4.1096E-04  4.1096E-04  4.1096E-04  4.1096E-04  4.1096E-04
       4.1096E-04  4.1096E-04  4.1096E-04  4.1096E-04  4.1096E-04  4.1096E-04  4.1096E-04  4.1096E-04  4.1096E-04  4.1096E-04
       4.1096E-04  4.1096E-04  4.1096E-04  4.1096E-04  4.1096E-04  4.1096E-04  4.1096E-04  4.1096E-04  4.1096E-04  4.1096E-04
       4.1096E-04  4.1096E-04  4.1096E-04  4.1096E-04  4.1096E-04  4.1096E-04  4.1096E-04  4.1096E-04  4.1096E-04  4.1096E-04
       4.1096E-04  4.1096E-04  4.1096E-04  4.1096E-04  4.1096E-04  4.1096E-04  4.1096E-04  4.1096E-04  4.1096E-04  4.1096E-04
       4.1096E-04  4.1096E-04  4.1096E-04  4.1096E-04  4.1096E-04  4.1096E-04  4.1096E-04  4.1096E-04  4.1096E-04  4.1096E-04
       4.1096E-04  4.1096E-04  4.1096E-04  4.1096E-04  4.1096E-04  4.1096E-04  4.1096E-04  4.1096E-04  4.1096E-04  4.1096E-04
       4.1096E-04  4.1096E-04  4.1096E-04  4.1096E-04  4.1096E-04  4.1096E-04  4.1096E-04  4.1096E-04  4.1096E-04  4.1096E-04
       4.1096E-04  4.1096E-04  4.1096E-04  4.1096E-04  4.1096E-04  4.1096E-04  4.1096E-04  4.1096E-04  4.1096E-04  4.1096E-04
       4.1096E-04  4.1096E-04  4.1096E-04  4.1096E-04  4.1096E-04  4.1096E-04
  73   4.1096E-04  4.1096E-04  4.1096E-04  4.1096E-04  4.1096E-04  4.1096E-04  4.1096E-04  4.1096E-04  4.1096E-04  4.1096E-04
       4.1096E-04  4.1096E-04  4.1096E-04  4.1096E-04  4.1096E-04  4.1096E-04  4.1096E-04  4.1096E-04  4.1096E-04  4.1096E-04
       4.1096E-04  4.1096E-04  4.1096E-04  4.1096E-04  4.1096E-04  4.1096E-04  4.1096E-04  4.1096E-04  4.1096E-04  4.1096E-04
       4.1096E-04  4.1096E-04  4.1096E-04  4.1096E-04  4.1096E-04  4.1096E-04  4.1096E-04  4.1096E-04  4.1096E-04  4.1096E-04
       4.1096E-04  4.1096E-04  4.1096E-04  4.1096E-04  4.1096E-04  4.1096E-04  4.1096E-04  4.1096E-04  4.1096E-04  4.1096E-04
       4.1096E-04  4.1096E-04  4.1096E-04  4.1096E-04  4.1096E-04  4.1096E-04  4.1096E-04  4.1096E-04  4.1096E-04  4.1096E-04
       4.1096E-04  4.1096E-04  4.1096E-04  4.1096E-04  4.1096E-04  4.1096E-04  4.1096E-04  4.1096E-04  4.1096E-04  4.1096E-04
       4.1096E-04  4.1096E-04  4.1096E-04  4.1096E-04  4.1096E-04  4.1096E-04  4.1096E-04  4.1096E-04  4.1096E-04  4.1096E-04
       4.1096E-04  4.1096E-04  4.1096E-04  4.1096E-04  4.1096E-04  4.1096E-04  4.1096E-04  4.1096E-04  4.1096E-04  4.1096E-04
       4.1096E-04  4.1096E-04  4.1096E-04  4.1096E-04  4.1096E-04  4.1096E-04  4.1096E-04  4.1096E-04  4.1096E-04  4.1096E-04
       4.1096E-04  4.1096E-04  4.1096E-04  4.1096E-04  4.1096E-04  4.1096E-04  4.1096E-04  4.1096E-04  4.1096E-04  4.1096E-04
       4.1096E-04  4.1096E-04  4.1096E-04  4.1096E-04  4.1096E-04  4.1096E-04  4.1096E-04  4.1096E-04  4.1096E-04  4.1096E-04
       4.1096E-04  4.1096E-04  4.1096E-04  4.1096E-04  4.1096E-04  4.1096E-04  4.1096E-04  4.1096E-04  4.1096E-04  4.1096E-04
       4.1096E-04  4.1096E-04  4.1096E-04  4.1096E-04  4.1096E-04  4.1096E-04  4.1096E-04  4.1096E-04  4.1096E-04  4.1096E-04
       4.1096E-04  4.1096E-04  4.1096E-04  4.1096E-04  4.1096E-04  4.1096E-04  4.1096E-04  4.1096E-04  4.1096E-04  4.1096E-04
       4.1096E-04  4.1096E-04  4.1096E-04  4.1096E-04  4.1096E-04  4.1096E-04  4.1096E-04  4.1096E-04  4.1096E-04  4.1096E-04
       4.1096E-04  4.1096E-04  4.1096E-04  4.1096E-04  4.1096E-04  4.1096E-04  4.1096E-04  4.1096E-04  4.1096E-04  4.1096E-04
       4.1096E-04  4.1096E-04  4.1096E-04  4.1096E-04  4.1096E-04  4.1096E-04  4.1096E-04  4.1096E-04  4.1096E-04  4.1096E-04
       4.1096E-04  4.1096E-04  4.1096E-04  4.1096E-04  4.1096E-04  4.1096E-04
  74   4.1096E-04  4.1096E-04  4.1096E-04  4.1096E-04  4.1096E-04  4.1096E-04  4.1096E-04  4.1096E-04  4.1096E-04  4.1096E-04
       4.1096E-04  4.1096E-04  4.1096E-04  4.1096E-04  4.1096E-04  4.1096E-04  4.1096E-04  4.1096E-04  4.1096E-04  4.1096E-04
       4.1096E-04  4.1096E-04  4.1096E-04  4.1096E-04  4.1096E-04  4.1096E-04  4.1096E-04  4.1096E-04  4.1096E-04  4.1096E-04
       4.1096E-04  4.1096E-04  4.1096E-04  4.1096E-04  4.1096E-04  4.1096E-04  4.1096E-04  4.1096E-04  4.1096E-04  4.1096E-04
       4.1096E-04  4.1096E-04  4.1096E-04  4.1096E-04  4.1096E-04  4.1096E-04  4.1096E-04  4.1096E-04  4.1096E-04  4.1096E-04
       4.1096E-04  4.1096E-04  4.1096E-04  4.1096E-04  4.1096E-04  4.1096E-04  4.1096E-04  4.1096E-04  4.1096E-04  4.1096E-04
       4.1096E-04  4.1096E-04  4.1096E-04  4.1096E-04  4.1096E-04  4.1096E-04  4.1096E-04  4.1096E-04  4.1096E-04  4.1096E-04
       4.1096E-04  4.1096E-04  4.1096E-04  4.1096E-04  4.1096E-04  4.1096E-04  4.1096E-04  4.1096E-04  4.1096E-04  4.1096E-04
       4.1096E-04  4.1096E-04  4.1096E-04  4.1096E-04  4.1096E-04  4.1096E-04  4.1096E-04  4.1096E-04  4.1096E-04  4.1096E-04
       4.1096E-04  4.1096E-04  4.1096E-04  4.1096E-04  4.1096E-04  4.1096E-04  4.1096E-04  4.1096E-04  4.1096E-04  4.1096E-04
       4.1096E-04  4.1096E-04  4.1096E-04  4.1096E-04  4.1096E-04  4.1096E-04  4.1096E-04  4.1096E-04  4.1096E-04  4.1096E-04
       4.1096E-04  4.1096E-04  4.1096E-04  4.1096E-04  4.1096E-04  4.1096E-04  4.1096E-04  4.1096E-04  4.1096E-04  4.1096E-04
       4.1096E-04  4.1096E-04  4.1096E-04  4.1096E-04  4.1096E-04  4.1096E-04  4.1096E-04  4.1096E-04  4.1096E-04  4.1096E-04
       4.1096E-04  4.1096E-04  4.1096E-04  4.1096E-04  4.1096E-04  4.1096E-04  4.1096E-04  4.1096E-04  4.1096E-04  4.1096E-04
       4.1096E-04  4.1096E-04  4.1096E-04  4.1096E-04  4.1096E-04  4.1096E-04  4.1096E-04  4.1096E-04  4.1096E-04  4.1096E-04
       4.1096E-04  4.1096E-04  4.1096E-04  4.1096E-04  4.1096E-04  4.1096E-04  4.1096E-04  4.1096E-04  4.1096E-04  4.1096E-04
       4.1096E-04  4.1096E-04  4.1096E-04  4.1096E-04  4.1096E-04  4.1096E-04  4.1096E-04  4.1096E-04  4.1096E-04  4.1096E-04
       4.1096E-04  4.1096E-04  4.1096E-04  4.1096E-04  4.1096E-04  4.1096E-04  4.1096E-04  4.1096E-04  4.1096E-04  4.1096E-04
       4.1096E-04  4.1096E-04  4.1096E-04  4.1096E-04  4.1096E-04  4.1096E-04
  75   4.1096E-04  4.1096E-04  4.1096E-04  4.1096E-04  4.1096E-04  4.1096E-04  4.1096E-04  4.1096E-04  4.1096E-04  4.1096E-04
       4.1096E-04  4.1096E-04  4.1096E-04  4.1096E-04  4.1096E-04  4.1096E-04  4.1096E-04  4.1096E-04  4.1096E-04  4.1096E-04
       4.1096E-04  4.1096E-04  4.1096E-04  4.1096E-04  4.1096E-04  4.1096E-04  4.1096E-04  4.1096E-04  4.1096E-04  4.1096E-04
       4.1096E-04  4.1096E-04  4.1096E-04  4.1096E-04  4.1096E-04  4.1096E-04  4.1096E-04  4.1096E-04  4.1096E-04  4.1096E-04
       4.1096E-04  4.1096E-04  4.1096E-04  4.1096E-04  4.1096E-04  4.1096E-04  4.1096E-04  4.1096E-04  4.1096E-04  4.1096E-04
       4.1096E-04  4.1096E-04  4.1096E-04  4.1096E-04  4.1096E-04  4.1096E-04  4.1096E-04  4.1096E-04  4.1096E-04  4.1096E-04
       4.1096E-04  4.1096E-04  4.1096E-04  4.1096E-04  4.1096E-04  4.1096E-04  4.1096E-04  4.1096E-04  4.1096E-04  4.1096E-04
       4.1096E-04  4.1096E-04  4.1096E-04  4.1096E-04  4.1096E-04  4.1096E-04  4.1096E-04  4.1096E-04  4.1096E-04  4.1096E-04
       4.1096E-04  4.1096E-04  4.1096E-04  4.1096E-04  4.1096E-04  4.1096E-04  4.1096E-04  4.1096E-04  4.1096E-04  4.1096E-04
       4.1096E-04  4.1096E-04  4.1096E-04  4.1096E-04  4.1096E-04  4.1096E-04  4.1096E-04  4.1096E-04  4.1096E-04  4.1096E-04
       4.1096E-04  4.1096E-04  4.1096E-04  4.1096E-04  4.1096E-04  4.1096E-04  4.1096E-04  4.1096E-04  4.1096E-04  4.1096E-04
       4.1096E-04  4.1096E-04  4.1096E-04  4.1096E-04  4.1096E-04  4.1096E-04  4.1096E-04  4.1096E-04  4.1096E-04  4.1096E-04
       4.1096E-04  4.1096E-04  4.1096E-04  4.1096E-04  4.1096E-04  4.1096E-04  4.1096E-04  4.1096E-04  4.1096E-04  4.1096E-04
       4.1096E-04  4.1096E-04  4.1096E-04  4.1096E-04  4.1096E-04  4.1096E-04  4.1096E-04  4.1096E-04  4.1096E-04  4.1096E-04
       4.1096E-04  4.1096E-04  4.1096E-04  4.1096E-04  4.1096E-04  4.1096E-04  4.1096E-04  4.1096E-04  4.1096E-04  4.1096E-04
       4.1096E-04  4.1096E-04  4.1096E-04  4.1096E-04  4.1096E-04  4.1096E-04  4.1096E-04  4.1096E-04  4.1096E-04  4.1096E-04
       4.1096E-04  4.1096E-04  4.1096E-04  4.1096E-04  4.1096E-04  4.1096E-04  4.1096E-04  4.1096E-04  4.1096E-04  4.1096E-04
       4.1096E-04  4.1096E-04  4.1096E-04  4.1096E-04  4.1096E-04  4.1096E-04  4.1096E-04  4.1096E-04  4.1096E-04  4.1096E-04
       4.1096E-04  4.1096E-04  4.1096E-04  4.1096E-04  4.1096E-04  4.1096E-04
  76   4.1096E-04  4.1096E-04  4.1096E-04  4.1096E-04  4.1096E-04  4.1096E-04  4.1096E-04  4.1096E-04  4.1096E-04  4.1096E-04
       4.1096E-04  4.1096E-04  4.1096E-04  4.1096E-04  4.1096E-04  4.1096E-04  4.1096E-04  4.1096E-04  4.1096E-04  4.1096E-04
       4.1096E-04  4.1096E-04  4.1096E-04  4.1096E-04  4.1096E-04  4.1096E-04  4.1096E-04  4.1096E-04  4.1096E-04  4.1096E-04
       4.1096E-04  4.1096E-04  4.1096E-04  4.1096E-04  4.1096E-04  4.1096E-04  4.1096E-04  4.1096E-04  4.1096E-04  4.1096E-04
       4.1096E-04  4.1096E-04  4.1096E-04  4.1096E-04  4.1096E-04  4.1096E-04  4.1096E-04  4.1096E-04  4.1096E-04  4.1096E-04
       4.1096E-04  4.1096E-04  4.1096E-04  4.1096E-04  4.1096E-04  4.1096E-04  4.1096E-04  4.1096E-04  4.1096E-04  4.1096E-04
       4.1096E-04  4.1096E-04  4.1096E-04  4.1096E-04  4.1096E-04  4.1096E-04  4.1096E-04  4.1096E-04  4.1096E-04  4.1096E-04
       4.1096E-04  4.1096E-04  4.1096E-04  4.1096E-04  4.1096E-04  4.1096E-04  4.1096E-04  4.1096E-04  4.1096E-04  4.1096E-04
       4.1096E-04  4.1096E-04  4.1096E-04  4.1096E-04  4.1096E-04  4.1096E-04  4.1096E-04  4.1096E-04  4.1096E-04  4.1096E-04
       4.1096E-04  4.1096E-04  4.1096E-04  4.1096E-04  4.1096E-04  4.1096E-04  4.1096E-04  4.1096E-04  4.1096E-04  4.1096E-04
       4.1096E-04  4.1096E-04  4.1096E-04  4.1096E-04  4.1096E-04  4.1096E-04  4.1096E-04  4.1096E-04  4.1096E-04  4.1096E-04
       4.1096E-04  4.1096E-04  4.1096E-04  4.1096E-04  4.1096E-04  4.1096E-04  4.1096E-04  4.1096E-04  4.1096E-04  4.1096E-04
       4.1096E-04  4.1096E-04  4.1096E-04  4.1096E-04  4.1096E-04  4.1096E-04  4.1096E-04  4.1096E-04  4.1096E-04  4.1096E-04
       4.1096E-04  4.1096E-04  4.1096E-04  4.1096E-04  4.1096E-04  4.1096E-04  4.1096E-04  4.1096E-04  4.1096E-04  4.1096E-04
       4.1096E-04  4.1096E-04  4.1096E-04  4.1096E-04  4.1096E-04  4.1096E-04  4.1096E-04  4.1096E-04  4.1096E-04  4.1096E-04
       4.1096E-04  4.1096E-04  4.1096E-04  4.1096E-04  4.1096E-04  4.1096E-04  4.1096E-04  4.1096E-04  4.1096E-04  4.1096E-04
       4.1096E-04  4.1096E-04  4.1096E-04  4.1096E-04  4.1096E-04  4.1096E-04  4.1096E-04  4.1096E-04  4.1096E-04  4.1096E-04
       4.1096E-04  4.1096E-04  4.1096E-04  4.1096E-04  4.1096E-04  4.1096E-04  4.1096E-04  4.1096E-04  4.1096E-04  4.1096E-04
       4.1096E-04  4.1096E-04  4.1096E-04  4.1096E-04  4.1096E-04  4.1096E-04
  77   4.1096E-04  4.1096E-04  4.1096E-04  4.1096E-04  4.1096E-04  4.1096E-04  4.1096E-04  4.1096E-04  4.1096E-04  4.1096E-04
       4.1096E-04  4.1096E-04  4.1096E-04  4.1096E-04  4.1096E-04  4.1096E-04  4.1096E-04  4.1096E-04  4.1096E-04  4.1096E-04
       4.1096E-04  4.1096E-04  4.1096E-04  4.1096E-04  4.1096E-04  4.1096E-04  4.1096E-04  4.1096E-04  4.1096E-04  4.1096E-04
       4.1096E-04  4.1096E-04  4.1096E-04  4.1096E-04  4.1096E-04  4.1096E-04  4.1096E-04  4.1096E-04  4.1096E-04  4.1096E-04
       4.1096E-04  4.1096E-04  4.1096E-04  4.1096E-04  4.1096E-04  4.1096E-04  4.1096E-04  4.1096E-04  4.1096E-04  4.1096E-04
       4.1096E-04  4.1096E-04  4.1096E-04  4.1096E-04  4.1096E-04  4.1096E-04  4.1096E-04  4.1096E-04  4.1096E-04  4.1096E-04
       4.1096E-04  4.1096E-04  4.1096E-04  4.1096E-04  4.1096E-04  4.1096E-04  4.1096E-04  4.1096E-04  4.1096E-04  4.1096E-04
       4.1096E-04  4.1096E-04  4.1096E-04  4.1096E-04  4.1096E-04  4.1096E-04  4.1096E-04  4.1096E-04  4.1096E-04  4.1096E-04
       4.1096E-04  4.1096E-04  4.1096E-04  4.1096E-04  4.1096E-04  4.1096E-04  4.1096E-04  4.1096E-04  4.1096E-04  4.1096E-04
       4.1096E-04  4.1096E-04  4.1096E-04  4.1096E-04  4.1096E-04  4.1096E-04  4.1096E-04  4.1096E-04  4.1096E-04  4.1096E-04
       4.1096E-04  4.1096E-04  4.1096E-04  4.1096E-04  4.1096E-04  4.1096E-04  4.1096E-04  4.1096E-04  4.1096E-04  4.1096E-04
       4.1096E-04  4.1096E-04  4.1096E-04  4.1096E-04  4.1096E-04  4.1096E-04  4.1096E-04  4.1096E-04  4.1096E-04  4.1096E-04
       4.1096E-04  4.1096E-04  4.1096E-04  4.1096E-04  4.1096E-04  4.1096E-04  4.1096E-04  4.1096E-04  4.1096E-04  4.1096E-04
       4.1096E-04  4.1096E-04  4.1096E-04  4.1096E-04  4.1096E-04  4.1096E-04  4.1096E-04  4.1096E-04  4.1096E-04  4.1096E-04
       4.1096E-04  4.1096E-04  4.1096E-04  4.1096E-04  4.1096E-04  4.1096E-04  4.1096E-04  4.1096E-04  4.1096E-04  4.1096E-04
       4.1096E-04  4.1096E-04  4.1096E-04  4.1096E-04  4.1096E-04  4.1096E-04  4.1096E-04  4.1096E-04  4.1096E-04  4.1096E-04
       4.1096E-04  4.1096E-04  4.1096E-04  4.1096E-04  4.1096E-04  4.1096E-04  4.1096E-04  4.1096E-04  4.1096E-04  4.1096E-04
       4.1096E-04  4.1096E-04  4.1096E-04  4.1096E-04  4.1096E-04  4.1096E-04  4.1096E-04  4.1096E-04  4.1096E-04  4.1096E-04
       4.1096E-04  4.1096E-04  4.1096E-04  4.1096E-04  4.1096E-04  4.1096E-04
  78   4.1096E-04  4.1096E-04  4.1096E-04  4.1096E-04  4.1096E-04  4.1096E-04  4.1096E-04  4.1096E-04  4.1096E-04  4.1096E-04
       4.1096E-04  4.1096E-04  4.1096E-04  4.1096E-04  4.1096E-04  4.1096E-04  4.1096E-04  4.1096E-04  4.1096E-04  4.1096E-04
       4.1096E-04  4.1096E-04  4.1096E-04  4.1096E-04  4.1096E-04  4.1096E-04  4.1096E-04  4.1096E-04  4.1096E-04  4.1096E-04
       4.1096E-04  4.1096E-04  4.1096E-04  4.1096E-04  4.1096E-04  4.1096E-04  4.1096E-04  4.1096E-04  4.1096E-04  4.1096E-04
       4.1096E-04  4.1096E-04  4.1096E-04  4.1096E-04  4.1096E-04  4.1096E-04  4.1096E-04  4.1096E-04  4.1096E-04  4.1096E-04
       4.1096E-04  4.1096E-04  4.1096E-04  4.1096E-04  4.1096E-04  4.1096E-04  4.1096E-04  4.1096E-04  4.1096E-04  4.1096E-04
       4.1096E-04  4.1096E-04  4.1096E-04  4.1096E-04  4.1096E-04  4.1096E-04  4.1096E-04  4.1096E-04  4.1096E-04  4.1096E-04
       4.1096E-04  4.1096E-04  4.1096E-04  4.1096E-04  4.1096E-04  4.1096E-04  4.1096E-04  4.1096E-04  4.1096E-04  4.1096E-04
       4.1096E-04  4.1096E-04  4.1096E-04  4.1096E-04  4.1096E-04  4.1096E-04  4.1096E-04  4.1096E-04  4.1096E-04  4.1096E-04
       4.1096E-04  4.1096E-04  4.1096E-04  4.1096E-04  4.1096E-04  4.1096E-04  4.1096E-04  4.1096E-04  4.1096E-04  4.1096E-04
       4.1096E-04  4.1096E-04  4.1096E-04  4.1096E-04  4.1096E-04  4.1096E-04  4.1096E-04  4.1096E-04  4.1096E-04  4.1096E-04
       4.1096E-04  4.1096E-04  4.1096E-04  4.1096E-04  4.1096E-04  4.1096E-04  4.1096E-04  4.1096E-04  4.1096E-04  4.1096E-04
       4.1096E-04  4.1096E-04  4.1096E-04  4.1096E-04  4.1096E-04  4.1096E-04  4.1096E-04  4.1096E-04  4.1096E-04  4.1096E-04
       4.1096E-04  4.1096E-04  4.1096E-04  4.1096E-04  4.1096E-04  4.1096E-04  4.1096E-04  4.1096E-04  4.1096E-04  4.1096E-04
       4.1096E-04  4.1096E-04  4.1096E-04  4.1096E-04  4.1096E-04  4.1096E-04  4.1096E-04  4.1096E-04  4.1096E-04  4.1096E-04
       4.1096E-04  4.1096E-04  4.1096E-04  4.1096E-04  4.1096E-04  4.1096E-04  4.1096E-04  4.1096E-04  4.1096E-04  4.1096E-04
       4.1096E-04  4.1096E-04  4.1096E-04  4.1096E-04  4.1096E-04  4.1096E-04  4.1096E-04  4.1096E-04  4.1096E-04  4.1096E-04
       4.1096E-04  4.1096E-04  4.1096E-04  4.1096E-04  4.1096E-04  4.1096E-04  4.1096E-04  4.1096E-04  4.1096E-04  4.1096E-04
       4.1096E-04  4.1096E-04  4.1096E-04  4.1096E-04  4.1096E-04  4.1096E-04
  79   4.1096E-04  4.1096E-04  4.1096E-04  4.1096E-04  4.1096E-04  4.1096E-04  4.1096E-04  4.1096E-04  4.1096E-04  4.1096E-04
       4.1096E-04  4.1096E-04  4.1096E-04  4.1096E-04  4.1096E-04  4.1096E-04  4.1096E-04  4.1096E-04  4.1096E-04  4.1096E-04
       4.1096E-04  4.1096E-04  4.1096E-04  4.1096E-04  4.1096E-04  4.1096E-04  4.1096E-04  4.1096E-04  4.1096E-04  4.1096E-04
       4.1096E-04  4.1096E-04  4.1096E-04  4.1096E-04  4.1096E-04  4.1096E-04  4.1096E-04  4.1096E-04  4.1096E-04  4.1096E-04
       4.1096E-04  4.1096E-04  4.1096E-04  4.1096E-04  4.1096E-04  4.1096E-04  4.1096E-04  4.1096E-04  4.1096E-04  4.1096E-04
       4.1096E-04  4.1096E-04  4.1096E-04  4.1096E-04  4.1096E-04  4.1096E-04  4.1096E-04  4.1096E-04  4.1096E-04  4.1096E-04
       4.1096E-04  4.1096E-04  4.1096E-04  4.1096E-04  4.1096E-04  4.1096E-04  4.1096E-04  4.1096E-04  4.1096E-04  4.1096E-04
       4.1096E-04  4.1096E-04  4.1096E-04  4.1096E-04  4.1096E-04  4.1096E-04  4.1096E-04  4.1096E-04  4.1096E-04  4.1096E-04
       4.1096E-04  4.1096E-04  4.1096E-04  4.1096E-04  4.1096E-04  4.1096E-04  4.1096E-04  4.1096E-04  4.1096E-04  4.1096E-04
       4.1096E-04  4.1096E-04  4.1096E-04  4.1096E-04  4.1096E-04  4.1096E-04  4.1096E-04  4.1096E-04  4.1096E-04  4.1096E-04
       4.1096E-04  4.1096E-04  4.1096E-04  4.1096E-04  4.1096E-04  4.1096E-04  4.1096E-04  4.1096E-04  4.1096E-04  4.1096E-04
       4.1096E-04  4.1096E-04  4.1096E-04  4.1096E-04  4.1096E-04  4.1096E-04  4.1096E-04  4.1096E-04  4.1096E-04  4.1096E-04
       4.1096E-04  4.1096E-04  4.1096E-04  4.1096E-04  4.1096E-04  4.1096E-04  4.1096E-04  4.1096E-04  4.1096E-04  4.1096E-04
       4.1096E-04  4.1096E-04  4.1096E-04  4.1096E-04  4.1096E-04  4.1096E-04  4.1096E-04  4.1096E-04  4.1096E-04  4.1096E-04
       4.1096E-04  4.1096E-04  4.1096E-04  4.1096E-04  4.1096E-04  4.1096E-04  4.1096E-04  4.1096E-04  4.1096E-04  4.1096E-04
       4.1096E-04  4.1096E-04  4.1096E-04  4.1096E-04  4.1096E-04  4.1096E-04  4.1096E-04  4.1096E-04  4.1096E-04  4.1096E-04
       4.1096E-04  4.1096E-04  4.1096E-04  4.1096E-04  4.1096E-04  4.1096E-04  4.1096E-04  4.1096E-04  4.1096E-04  4.1096E-04
       4.1096E-04  4.1096E-04  4.1096E-04  4.1096E-04  4.1096E-04  4.1096E-04  4.1096E-04  4.1096E-04  4.1096E-04  4.1096E-04
       4.1096E-04  4.1096E-04  4.1096E-04  4.1096E-04  4.1096E-04  4.1096E-04
  80   4.1096E-04  4.1096E-04  4.1096E-04  4.1096E-04  4.1096E-04  4.1096E-04  4.1096E-04  4.1096E-04  4.1096E-04  4.1096E-04
       4.1096E-04  4.1096E-04  4.1096E-04  4.1096E-04  4.1096E-04  4.1096E-04  4.1096E-04  4.1096E-04  4.1096E-04  4.1096E-04
       4.1096E-04  4.1096E-04  4.1096E-04  4.1096E-04  4.1096E-04  4.1096E-04  4.1096E-04  4.1096E-04  4.1096E-04  4.1096E-04
       4.1096E-04  4.1096E-04  4.1096E-04  4.1096E-04  4.1096E-04  4.1096E-04  4.1096E-04  4.1096E-04  4.1096E-04  4.1096E-04
       4.1096E-04  4.1096E-04  4.1096E-04  4.1096E-04  4.1096E-04  4.1096E-04  4.1096E-04  4.1096E-04  4.1096E-04  4.1096E-04
       4.1096E-04  4.1096E-04  4.1096E-04  4.1096E-04  4.1096E-04  4.1096E-04  4.1096E-04  4.1096E-04  4.1096E-04  4.1096E-04
       4.1096E-04  4.1096E-04  4.1096E-04  4.1096E-04  4.1096E-04  4.1096E-04  4.1096E-04  4.1096E-04  4.1096E-04  4.1096E-04
       4.1096E-04  4.1096E-04  4.1096E-04  4.1096E-04  4.1096E-04  4.1096E-04  4.1096E-04  4.1096E-04  4.1096E-04  4.1096E-04
       4.1096E-04  4.1096E-04  4.1096E-04  4.1096E-04  4.1096E-04  4.1096E-04  4.1096E-04  4.1096E-04  4.1096E-04  4.1096E-04
       4.1096E-04  4.1096E-04  4.1096E-04  4.1096E-04  4.1096E-04  4.1096E-04  4.1096E-04  4.1096E-04  4.1096E-04  4.1096E-04
       4.1096E-04  4.1096E-04  4.1096E-04  4.1096E-04  4.1096E-04  4.1096E-04  4.1096E-04  4.1096E-04  4.1096E-04  4.1096E-04
       4.1096E-04  4.1096E-04  4.1096E-04  4.1096E-04  4.1096E-04  4.1096E-04  4.1096E-04  4.1096E-04  4.1096E-04  4.1096E-04
       4.1096E-04  4.1096E-04  4.1096E-04  4.1096E-04  4.1096E-04  4.1096E-04  4.1096E-04  4.1096E-04  4.1096E-04  4.1096E-04
       4.1096E-04  4.1096E-04  4.1096E-04  4.1096E-04  4.1096E-04  4.1096E-04  4.1096E-04  4.1096E-04  4.1096E-04  4.1096E-04
       4.1096E-04  4.1096E-04  4.1096E-04  4.1096E-04  4.1096E-04  4.1096E-04  4.1096E-04  4.1096E-04  4.1096E-04  4.1096E-04
       4.1096E-04  4.1096E-04  4.1096E-04  4.1096E-04  4.1096E-04  4.1096E-04  4.1096E-04  4.1096E-04  4.1096E-04  4.1096E-04
       4.1096E-04  4.1096E-04  4.1096E-04  4.1096E-04  4.1096E-04  4.1096E-04  4.1096E-04  4.1096E-04  4.1096E-04  4.1096E-04
       4.1096E-04  4.1096E-04  4.1096E-04  4.1096E-04  4.1096E-04  4.1096E-04  4.1096E-04  4.1096E-04  4.1096E-04  4.1096E-04
       4.1096E-04  4.1096E-04  4.1096E-04  4.1096E-04  4.1096E-04  4.1096E-04
  81   4.1096E-04  4.1096E-04  4.1096E-04  4.1096E-04  4.1096E-04  4.1096E-04  4.1096E-04  4.1096E-04  4.1096E-04  4.1096E-04
       4.1096E-04  4.1096E-04  4.1096E-04  4.1096E-04  4.1096E-04  4.1096E-04  4.1096E-04  4.1096E-04  4.1096E-04  4.1096E-04
       4.1096E-04  4.1096E-04  4.1096E-04  4.1096E-04  4.1096E-04  4.1096E-04  4.1096E-04  4.1096E-04  4.1096E-04  4.1096E-04
       4.1096E-04  4.1096E-04  4.1096E-04  4.1096E-04  4.1096E-04  4.1096E-04  4.1096E-04  4.1096E-04  4.1096E-04  4.1096E-04
       4.1096E-04  4.1096E-04  4.1096E-04  4.1096E-04  4.1096E-04  4.1096E-04  4.1096E-04  4.1096E-04  4.1096E-04  4.1096E-04
       4.1096E-04  4.1096E-04  4.1096E-04  4.1096E-04  4.1096E-04  4.1096E-04  4.1096E-04  4.1096E-04  4.1096E-04  4.1096E-04
       4.1096E-04  4.1096E-04  4.1096E-04  4.1096E-04  4.1096E-04  4.1096E-04  4.1096E-04  4.1096E-04  4.1096E-04  4.1096E-04
       4.1096E-04  4.1096E-04  4.1096E-04  4.1096E-04  4.1096E-04  4.1096E-04  4.1096E-04  4.1096E-04  4.1096E-04  4.1096E-04
       4.1096E-04  4.1096E-04  4.1096E-04  4.1096E-04  4.1096E-04  4.1096E-04  4.1096E-04  4.1096E-04  4.1096E-04  4.1096E-04
       4.1096E-04  4.1096E-04  4.1096E-04  4.1096E-04  4.1096E-04  4.1096E-04  4.1096E-04  4.1096E-04  4.1096E-04  4.1096E-04
       4.1096E-04  4.1096E-04  4.1096E-04  4.1096E-04  4.1096E-04  4.1096E-04  4.1096E-04  4.1096E-04  4.1096E-04  4.1096E-04
       4.1096E-04  4.1096E-04  4.1096E-04  4.1096E-04  4.1096E-04  4.1096E-04  4.1096E-04  4.1096E-04  4.1096E-04  4.1096E-04
       4.1096E-04  4.1096E-04  4.1096E-04  4.1096E-04  4.1096E-04  4.1096E-04  4.1096E-04  4.1096E-04  4.1096E-04  4.1096E-04
       4.1096E-04  4.1096E-04  4.1096E-04  4.1096E-04  4.1096E-04  4.1096E-04  4.1096E-04  4.1096E-04  4.1096E-04  4.1096E-04
       4.1096E-04  4.1096E-04  4.1096E-04  4.1096E-04  4.1096E-04  4.1096E-04  4.1096E-04  4.1096E-04  4.1096E-04  4.1096E-04
       4.1096E-04  4.1096E-04  4.1096E-04  4.1096E-04  4.1096E-04  4.1096E-04  4.1096E-04  4.1096E-04  4.1096E-04  4.1096E-04
       4.1096E-04  4.1096E-04  4.1096E-04  4.1096E-04  4.1096E-04  4.1096E-04  4.1096E-04  4.1096E-04  4.1096E-04  4.1096E-04
       4.1096E-04  4.1096E-04  4.1096E-04  4.1096E-04  4.1096E-04  4.1096E-04  4.1096E-04  4.1096E-04  4.1096E-04  4.1096E-04
       4.1096E-04  4.1096E-04  4.1096E-04  4.1096E-04  4.1096E-04  4.1096E-04
  82   4.1096E-04  4.1096E-04  4.1096E-04  4.1096E-04  4.1096E-04  4.1096E-04  4.1096E-04  4.1096E-04  4.1096E-04  4.1096E-04
       4.1096E-04  4.1096E-04  4.1096E-04  4.1096E-04  4.1096E-04  4.1096E-04  4.1096E-04  4.1096E-04  4.1096E-04  4.1096E-04
       4.1096E-04  4.1096E-04  4.1096E-04  4.1096E-04  4.1096E-04  4.1096E-04  4.1096E-04  4.1096E-04  4.1096E-04  4.1096E-04
       4.1096E-04  4.1096E-04  4.1096E-04  4.1096E-04  4.1096E-04  4.1096E-04  4.1096E-04  4.1096E-04  4.1096E-04  4.1096E-04
       4.1096E-04  4.1096E-04  4.1096E-04  4.1096E-04  4.1096E-04  4.1096E-04  4.1096E-04  4.1096E-04  4.1096E-04  4.1096E-04
       4.1096E-04  4.1096E-04  4.1096E-04  4.1096E-04  4.1096E-04  4.1096E-04  4.1096E-04  4.1096E-04  4.1096E-04  4.1096E-04
       4.1096E-04  4.1096E-04  4.1096E-04  4.1096E-04  4.1096E-04  4.1096E-04  4.1096E-04  4.1096E-04  4.1096E-04  4.1096E-04
       4.1096E-04  4.1096E-04  4.1096E-04  4.1096E-04  4.1096E-04  4.1096E-04  4.1096E-04  4.1096E-04  4.1096E-04  4.1096E-04
       4.1096E-04  4.1096E-04  4.1096E-04  4.1096E-04  4.1096E-04  4.1096E-04  4.1096E-04  4.1096E-04  4.1096E-04  4.1096E-04
       4.1096E-04  4.1096E-04  4.1096E-04  4.1096E-04  4.1096E-04  4.1096E-04  4.1096E-04  4.1096E-04  4.1096E-04  4.1096E-04
       4.1096E-04  4.1096E-04  4.1096E-04  4.1096E-04  4.1096E-04  4.1096E-04  4.1096E-04  4.1096E-04  4.1096E-04  4.1096E-04
       4.1096E-04  4.1096E-04  4.1096E-04  4.1096E-04  4.1096E-04  4.1096E-04  4.1096E-04  4.1096E-04  4.1096E-04  4.1096E-04
       4.1096E-04  4.1096E-04  4.1096E-04  4.1096E-04  4.1096E-04  4.1096E-04  4.1096E-04  4.1096E-04  4.1096E-04  4.1096E-04
       4.1096E-04  4.1096E-04  4.1096E-04  4.1096E-04  4.1096E-04  4.1096E-04  4.1096E-04  4.1096E-04  4.1096E-04  4.1096E-04
       4.1096E-04  4.1096E-04  4.1096E-04  4.1096E-04  4.1096E-04  4.1096E-04  4.1096E-04  4.1096E-04  4.1096E-04  4.1096E-04
       4.1096E-04  4.1096E-04  4.1096E-04  4.1096E-04  4.1096E-04  4.1096E-04  4.1096E-04  4.1096E-04  4.1096E-04  4.1096E-04
       4.1096E-04  4.1096E-04  4.1096E-04  4.1096E-04  4.1096E-04  4.1096E-04  4.1096E-04  4.1096E-04  4.1096E-04  4.1096E-04
       4.1096E-04  4.1096E-04  4.1096E-04  4.1096E-04  4.1096E-04  4.1096E-04  4.1096E-04  4.1096E-04  4.1096E-04  4.1096E-04
       4.1096E-04  4.1096E-04  4.1096E-04  4.1096E-04  4.1096E-04  4.1096E-04
  83   4.1096E-04  4.1096E-04  4.1096E-04  4.1096E-04  4.1096E-04  4.1096E-04  4.1096E-04  4.1096E-04  4.1096E-04  4.1096E-04
       4.1096E-04  4.1096E-04  4.1096E-04  4.1096E-04  4.1096E-04  4.1096E-04  4.1096E-04  4.1096E-04  4.1096E-04  4.1096E-04
       4.1096E-04  4.1096E-04  4.1096E-04  4.1096E-04  4.1096E-04  4.1096E-04  4.1096E-04  4.1096E-04  4.1096E-04  4.1096E-04
       4.1096E-04  4.1096E-04  4.1096E-04  4.1096E-04  4.1096E-04  4.1096E-04  4.1096E-04  4.1096E-04  4.1096E-04  4.1096E-04
       4.1096E-04  4.1096E-04  4.1096E-04  4.1096E-04  4.1096E-04  4.1096E-04  4.1096E-04  4.1096E-04  4.1096E-04  4.1096E-04
       4.1096E-04  4.1096E-04  4.1096E-04  4.1096E-04  4.1096E-04  4.1096E-04  4.1096E-04  4.1096E-04  4.1096E-04  4.1096E-04
       4.1096E-04  4.1096E-04  4.1096E-04  4.1096E-04  4.1096E-04  4.1096E-04  4.1096E-04  4.1096E-04  4.1096E-04  4.1096E-04
       4.1096E-04  4.1096E-04  4.1096E-04  4.1096E-04  4.1096E-04  4.1096E-04  4.1096E-04  4.1096E-04  4.1096E-04  4.1096E-04
       4.1096E-04  4.1096E-04  4.1096E-04  4.1096E-04  4.1096E-04  4.1096E-04  4.1096E-04  4.1096E-04  4.1096E-04  4.1096E-04
       4.1096E-04  4.1096E-04  4.1096E-04  4.1096E-04  4.1096E-04  4.1096E-04  4.1096E-04  4.1096E-04  4.1096E-04  4.1096E-04
       4.1096E-04  4.1096E-04  4.1096E-04  4.1096E-04  4.1096E-04  4.1096E-04  4.1096E-04  4.1096E-04  4.1096E-04  4.1096E-04
       4.1096E-04  4.1096E-04  4.1096E-04  4.1096E-04  4.1096E-04  4.1096E-04  4.1096E-04  4.1096E-04  4.1096E-04  4.1096E-04
       4.1096E-04  4.1096E-04  4.1096E-04  4.1096E-04  4.1096E-04  4.1096E-04  4.1096E-04  4.1096E-04  4.1096E-04  4.1096E-04
       4.1096E-04  4.1096E-04  4.1096E-04  4.1096E-04  4.1096E-04  4.1096E-04  4.1096E-04  4.1096E-04  4.1096E-04  4.1096E-04
       4.1096E-04  4.1096E-04  4.1096E-04  4.1096E-04  4.1096E-04  4.1096E-04  4.1096E-04  4.1096E-04  4.1096E-04  4.1096E-04
       4.1096E-04  4.1096E-04  4.1096E-04  4.1096E-04  4.1096E-04  4.1096E-04  4.1096E-04  4.1096E-04  4.1096E-04  4.1096E-04
       4.1096E-04  4.1096E-04  4.1096E-04  4.1096E-04  4.1096E-04  4.1096E-04  4.1096E-04  4.1096E-04  4.1096E-04  4.1096E-04
       4.1096E-04  4.1096E-04  4.1096E-04  4.1096E-04  4.1096E-04  4.1096E-04  4.1096E-04  4.1096E-04  4.1096E-04  4.1096E-04
       4.1096E-04  4.1096E-04  4.1096E-04  4.1096E-04  4.1096E-04  4.1096E-04
  84   4.1096E-04  4.1096E-04  4.1096E-04  4.1096E-04  4.1096E-04  4.1096E-04  4.1096E-04  4.1096E-04  4.1096E-04  4.1096E-04
       4.1096E-04  4.1096E-04  4.1096E-04  4.1096E-04  4.1096E-04  4.1096E-04  4.1096E-04  4.1096E-04  4.1096E-04  4.1096E-04
       4.1096E-04  4.1096E-04  4.1096E-04  4.1096E-04  4.1096E-04  4.1096E-04  4.1096E-04  4.1096E-04  4.1096E-04  4.1096E-04
       4.1096E-04  4.1096E-04  4.1096E-04  4.1096E-04  4.1096E-04  4.1096E-04  4.1096E-04  4.1096E-04  4.1096E-04  4.1096E-04
       4.1096E-04  4.1096E-04  4.1096E-04  4.1096E-04  4.1096E-04  4.1096E-04  4.1096E-04  4.1096E-04  4.1096E-04  4.1096E-04
       4.1096E-04  4.1096E-04  4.1096E-04  4.1096E-04  4.1096E-04  4.1096E-04  4.1096E-04  4.1096E-04  4.1096E-04  4.1096E-04
       4.1096E-04  4.1096E-04  4.1096E-04  4.1096E-04  4.1096E-04  4.1096E-04  4.1096E-04  4.1096E-04  4.1096E-04  4.1096E-04
       4.1096E-04  4.1096E-04  4.1096E-04  4.1096E-04  4.1096E-04  4.1096E-04  4.1096E-04  4.1096E-04  4.1096E-04  4.1096E-04
       4.1096E-04  4.1096E-04  4.1096E-04  4.1096E-04  4.1096E-04  4.1096E-04  4.1096E-04  4.1096E-04  4.1096E-04  4.1096E-04
       4.1096E-04  4.1096E-04  4.1096E-04  4.1096E-04  4.1096E-04  4.1096E-04  4.1096E-04  4.1096E-04  4.1096E-04  4.1096E-04
       4.1096E-04  4.1096E-04  4.1096E-04  4.1096E-04  4.1096E-04  4.1096E-04  4.1096E-04  4.1096E-04  4.1096E-04  4.1096E-04
       4.1096E-04  4.1096E-04  4.1096E-04  4.1096E-04  4.1096E-04  4.1096E-04  4.1096E-04  4.1096E-04  4.1096E-04  4.1096E-04
       4.1096E-04  4.1096E-04  4.1096E-04  4.1096E-04  4.1096E-04  4.1096E-04  4.1096E-04  4.1096E-04  4.1096E-04  4.1096E-04
       4.1096E-04  4.1096E-04  4.1096E-04  4.1096E-04  4.1096E-04  4.1096E-04  4.1096E-04  4.1096E-04  4.1096E-04  4.1096E-04
       4.1096E-04  4.1096E-04  4.1096E-04  4.1096E-04  4.1096E-04  4.1096E-04  4.1096E-04  4.1096E-04  4.1096E-04  4.1096E-04
       4.1096E-04  4.1096E-04  4.1096E-04  4.1096E-04  4.1096E-04  4.1096E-04  4.1096E-04  4.1096E-04  4.1096E-04  4.1096E-04
       4.1096E-04  4.1096E-04  4.1096E-04  4.1096E-04  4.1096E-04  4.1096E-04  4.1096E-04  4.1096E-04  4.1096E-04  4.1096E-04
       4.1096E-04  4.1096E-04  4.1096E-04  4.1096E-04  4.1096E-04  4.1096E-04  4.1096E-04  4.1096E-04  4.1096E-04  4.1096E-04
       4.1096E-04  4.1096E-04  4.1096E-04  4.1096E-04  4.1096E-04  4.1096E-04
  85   4.1096E-04  4.1096E-04  4.1096E-04  4.1096E-04  4.1096E-04  4.1096E-04  4.1096E-04  4.1096E-04  4.1096E-04  4.1096E-04
       4.1096E-04  4.1096E-04  4.1096E-04  4.1096E-04  4.1096E-04  4.1096E-04  4.1096E-04  4.1096E-04  4.1096E-04  4.1096E-04
       4.1096E-04  4.1096E-04  4.1096E-04  4.1096E-04  4.1096E-04  4.1096E-04  4.1096E-04  4.1096E-04  4.1096E-04  4.1096E-04
       4.1096E-04  4.1096E-04  4.1096E-04  4.1096E-04  4.1096E-04  4.1096E-04  4.1096E-04  4.1096E-04  4.1096E-04  4.1096E-04
       4.1096E-04  4.1096E-04  4.1096E-04  4.1096E-04  4.1096E-04  4.1096E-04  4.1096E-04  4.1096E-04  4.1096E-04  4.1096E-04
       4.1096E-04  4.1096E-04  4.1096E-04  4.1096E-04  4.1096E-04  4.1096E-04  4.1096E-04  4.1096E-04  4.1096E-04  4.1096E-04
       4.1096E-04  4.1096E-04  4.1096E-04  4.1096E-04  4.1096E-04  4.1096E-04  4.1096E-04  4.1096E-04  4.1096E-04  4.1096E-04
       4.1096E-04  4.1096E-04  4.1096E-04  4.1096E-04  4.1096E-04  4.1096E-04  4.1096E-04  4.1096E-04  4.1096E-04  4.1096E-04
       4.1096E-04  4.1096E-04  4.1096E-04  4.1096E-04  4.1096E-04  4.1096E-04  4.1096E-04  4.1096E-04  4.1096E-04  4.1096E-04
       4.1096E-04  4.1096E-04  4.1096E-04  4.1096E-04  4.1096E-04  4.1096E-04  4.1096E-04  4.1096E-04  4.1096E-04  4.1096E-04
       4.1096E-04  4.1096E-04  4.1096E-04  4.1096E-04  4.1096E-04  4.1096E-04  4.1096E-04  4.1096E-04  4.1096E-04  4.1096E-04
       4.1096E-04  4.1096E-04  4.1096E-04  4.1096E-04  4.1096E-04  4.1096E-04  4.1096E-04  4.1096E-04  4.1096E-04  4.1096E-04
       4.1096E-04  4.1096E-04  4.1096E-04  4.1096E-04  4.1096E-04  4.1096E-04  4.1096E-04  4.1096E-04  4.1096E-04  4.1096E-04
       4.1096E-04  4.1096E-04  4.1096E-04  4.1096E-04  4.1096E-04  4.1096E-04  4.1096E-04  4.1096E-04  4.1096E-04  4.1096E-04
       4.1096E-04  4.1096E-04  4.1096E-04  4.1096E-04  4.1096E-04  4.1096E-04  4.1096E-04  4.1096E-04  4.1096E-04  4.1096E-04
       4.1096E-04  4.1096E-04  4.1096E-04  4.1096E-04  4.1096E-04  4.1096E-04  4.1096E-04  4.1096E-04  4.1096E-04  4.1096E-04
       4.1096E-04  4.1096E-04  4.1096E-04  4.1096E-04  4.1096E-04  4.1096E-04  4.1096E-04  4.1096E-04  4.1096E-04  4.1096E-04
       4.1096E-04  4.1096E-04  4.1096E-04  4.1096E-04  4.1096E-04  4.1096E-04  4.1096E-04  4.1096E-04  4.1096E-04  4.1096E-04
       4.1096E-04  4.1096E-04  4.1096E-04  4.1096E-04  4.1096E-04  4.1096E-04
  86   4.1096E-04  4.1096E-04  4.1096E-04  4.1096E-04  4.1096E-04  4.1096E-04  4.1096E-04  4.1096E-04  4.1096E-04  4.1096E-04
       4.1096E-04  4.1096E-04  4.1096E-04  4.1096E-04  4.1096E-04  4.1096E-04  4.1096E-04  4.1096E-04  4.1096E-04  4.1096E-04
       4.1096E-04  4.1096E-04  4.1096E-04  4.1096E-04  4.1096E-04  4.1096E-04  4.1096E-04  4.1096E-04  4.1096E-04  4.1096E-04
       4.1096E-04  4.1096E-04  4.1096E-04  4.1096E-04  4.1096E-04  4.1096E-04  4.1096E-04  4.1096E-04  4.1096E-04  4.1096E-04
       4.1096E-04  4.1096E-04  4.1096E-04  4.1096E-04  4.1096E-04  4.1096E-04  4.1096E-04  4.1096E-04  4.1096E-04  4.1096E-04
       4.1096E-04  4.1096E-04  4.1096E-04  4.1096E-04  4.1096E-04  4.1096E-04  4.1096E-04  4.1096E-04  4.1096E-04  4.1096E-04
       4.1096E-04  4.1096E-04  4.1096E-04  4.1096E-04  4.1096E-04  4.1096E-04  4.1096E-04  4.1096E-04  4.1096E-04  4.1096E-04
       4.1096E-04  4.1096E-04  4.1096E-04  4.1096E-04  4.1096E-04  4.1096E-04  4.1096E-04  4.1096E-04  4.1096E-04  4.1096E-04
       4.1096E-04  4.1096E-04  4.1096E-04  4.1096E-04  4.1096E-04  4.1096E-04  4.1096E-04  4.1096E-04  4.1096E-04  4.1096E-04
       4.1096E-04  4.1096E-04  4.1096E-04  4.1096E-04  4.1096E-04  4.1096E-04  4.1096E-04  4.1096E-04  4.1096E-04  4.1096E-04
       4.1096E-04  4.1096E-04  4.1096E-04  4.1096E-04  4.1096E-04  4.1096E-04  4.1096E-04  4.1096E-04  4.1096E-04  4.1096E-04
       4.1096E-04  4.1096E-04  4.1096E-04  4.1096E-04  4.1096E-04  4.1096E-04  4.1096E-04  4.1096E-04  4.1096E-04  4.1096E-04
       4.1096E-04  4.1096E-04  4.1096E-04  4.1096E-04  4.1096E-04  4.1096E-04  4.1096E-04  4.1096E-04  4.1096E-04  4.1096E-04
       4.1096E-04  4.1096E-04  4.1096E-04  4.1096E-04  4.1096E-04  4.1096E-04  4.1096E-04  4.1096E-04  4.1096E-04  4.1096E-04
       4.1096E-04  4.1096E-04  4.1096E-04  4.1096E-04  4.1096E-04  4.1096E-04  4.1096E-04  4.1096E-04  4.1096E-04  4.1096E-04
       4.1096E-04  4.1096E-04  4.1096E-04  4.1096E-04  4.1096E-04  4.1096E-04  4.1096E-04  4.1096E-04  4.1096E-04  4.1096E-04
       4.1096E-04  4.1096E-04  4.1096E-04  4.1096E-04  4.1096E-04  4.1096E-04  4.1096E-04  4.1096E-04  4.1096E-04  4.1096E-04
       4.1096E-04  4.1096E-04  4.1096E-04  4.1096E-04  4.1096E-04  4.1096E-04  4.1096E-04  4.1096E-04  4.1096E-04  4.1096E-04
       4.1096E-04  4.1096E-04  4.1096E-04  4.1096E-04  4.1096E-04  4.1096E-04
  87   4.1096E-04  4.1096E-04  4.1096E-04  4.1096E-04  4.1096E-04  4.1096E-04  4.1096E-04  4.1096E-04  4.1096E-04  4.1096E-04
       4.1096E-04  4.1096E-04  4.1096E-04  4.1096E-04  4.1096E-04  4.1096E-04  4.1096E-04  4.1096E-04  4.1096E-04  4.1096E-04
       4.1096E-04  4.1096E-04  4.1096E-04  4.1096E-04  4.1096E-04  4.1096E-04  4.1096E-04  4.1096E-04  4.1096E-04  4.1096E-04
       4.1096E-04  4.1096E-04  4.1096E-04  4.1096E-04  4.1096E-04  4.1096E-04  4.1096E-04  4.1096E-04  4.1096E-04  4.1096E-04
       4.1096E-04  4.1096E-04  4.1096E-04  4.1096E-04  4.1096E-04  4.1096E-04  4.1096E-04  4.1096E-04  4.1096E-04  4.1096E-04
       4.1096E-04  4.1096E-04  4.1096E-04  4.1096E-04  4.1096E-04  4.1096E-04  4.1096E-04  4.1096E-04  4.1096E-04  4.1096E-04
       4.1096E-04  4.1096E-04  4.1096E-04  4.1096E-04  4.1096E-04  4.1096E-04  4.1096E-04  4.1096E-04  4.1096E-04  4.1096E-04
       4.1096E-04  4.1096E-04  4.1096E-04  4.1096E-04  4.1096E-04  4.1096E-04  4.1096E-04  4.1096E-04  4.1096E-04  4.1096E-04
       4.1096E-04  4.1096E-04  4.1096E-04  4.1096E-04  4.1096E-04  4.1096E-04  4.1096E-04  4.1096E-04  4.1096E-04  4.1096E-04
       4.1096E-04  4.1096E-04  4.1096E-04  4.1096E-04  4.1096E-04  4.1096E-04  4.1096E-04  4.1096E-04  4.1096E-04  4.1096E-04
       4.1096E-04  4.1096E-04  4.1096E-04  4.1096E-04  4.1096E-04  4.1096E-04  4.1096E-04  4.1096E-04  4.1096E-04  4.1096E-04
       4.1096E-04  4.1096E-04  4.1096E-04  4.1096E-04  4.1096E-04  4.1096E-04  4.1096E-04  4.1096E-04  4.1096E-04  4.1096E-04
       4.1096E-04  4.1096E-04  4.1096E-04  4.1096E-04  4.1096E-04  4.1096E-04  4.1096E-04  4.1096E-04  4.1096E-04  4.1096E-04
       4.1096E-04  4.1096E-04  4.1096E-04  4.1096E-04  4.1096E-04  4.1096E-04  4.1096E-04  4.1096E-04  4.1096E-04  4.1096E-04
       4.1096E-04  4.1096E-04  4.1096E-04  4.1096E-04  4.1096E-04  4.1096E-04  4.1096E-04  4.1096E-04  4.1096E-04  4.1096E-04
       4.1096E-04  4.1096E-04  4.1096E-04  4.1096E-04  4.1096E-04  4.1096E-04  4.1096E-04  4.1096E-04  4.1096E-04  4.1096E-04
       4.1096E-04  4.1096E-04  4.1096E-04  4.1096E-04  4.1096E-04  4.1096E-04  4.1096E-04  4.1096E-04  4.1096E-04  4.1096E-04
       4.1096E-04  4.1096E-04  4.1096E-04  4.1096E-04  4.1096E-04  4.1096E-04  4.1096E-04  4.1096E-04  4.1096E-04  4.1096E-04
       4.1096E-04  4.1096E-04  4.1096E-04  4.1096E-04  4.1096E-04  4.1096E-04
  88   4.1096E-04  4.1096E-04  4.1096E-04  4.1096E-04  4.1096E-04  4.1096E-04  4.1096E-04  4.1096E-04  4.1096E-04  4.1096E-04
       4.1096E-04  4.1096E-04  4.1096E-04  4.1096E-04  4.1096E-04  4.1096E-04  4.1096E-04  4.1096E-04  4.1096E-04  4.1096E-04
       4.1096E-04  4.1096E-04  4.1096E-04  4.1096E-04  4.1096E-04  4.1096E-04  4.1096E-04  4.1096E-04  4.1096E-04  4.1096E-04
       4.1096E-04  4.1096E-04  4.1096E-04  4.1096E-04  4.1096E-04  4.1096E-04  4.1096E-04  4.1096E-04  4.1096E-04  4.1096E-04
       4.1096E-04  4.1096E-04  4.1096E-04  4.1096E-04  4.1096E-04  4.1096E-04  4.1096E-04  4.1096E-04  4.1096E-04  4.1096E-04
       4.1096E-04  4.1096E-04  4.1096E-04  4.1096E-04  4.1096E-04  4.1096E-04  4.1096E-04  4.1096E-04  4.1096E-04  4.1096E-04
       4.1096E-04  4.1096E-04  4.1096E-04  4.1096E-04  4.1096E-04  4.1096E-04  4.1096E-04  4.1096E-04  4.1096E-04  4.1096E-04
       4.1096E-04  4.1096E-04  4.1096E-04  4.1096E-04  4.1096E-04  4.1096E-04  4.1096E-04  4.1096E-04  4.1096E-04  4.1096E-04
       4.1096E-04  4.1096E-04  4.1096E-04  4.1096E-04  4.1096E-04  4.1096E-04  4.1096E-04  4.1096E-04  4.1096E-04  4.1096E-04
       4.1096E-04  4.1096E-04  4.1096E-04  4.1096E-04  4.1096E-04  4.1096E-04  4.1096E-04  4.1096E-04  4.1096E-04  4.1096E-04
       4.1096E-04  4.1096E-04  4.1096E-04  4.1096E-04  4.1096E-04  4.1096E-04  4.1096E-04  4.1096E-04  4.1096E-04  4.1096E-04
       4.1096E-04  4.1096E-04  4.1096E-04  4.1096E-04  4.1096E-04  4.1096E-04  4.1096E-04  4.1096E-04  4.1096E-04  4.1096E-04
       4.1096E-04  4.1096E-04  4.1096E-04  4.1096E-04  4.1096E-04  4.1096E-04  4.1096E-04  4.1096E-04  4.1096E-04  4.1096E-04
       4.1096E-04  4.1096E-04  4.1096E-04  4.1096E-04  4.1096E-04  4.1096E-04  4.1096E-04  4.1096E-04  4.1096E-04  4.1096E-04
       4.1096E-04  4.1096E-04  4.1096E-04  4.1096E-04  4.1096E-04  4.1096E-04  4.1096E-04  4.1096E-04  4.1096E-04  4.1096E-04
       4.1096E-04  4.1096E-04  4.1096E-04  4.1096E-04  4.1096E-04  4.1096E-04  4.1096E-04  4.1096E-04  4.1096E-04  4.1096E-04
       4.1096E-04  4.1096E-04  4.1096E-04  4.1096E-04  4.1096E-04  4.1096E-04  4.1096E-04  4.1096E-04  4.1096E-04  4.1096E-04
       4.1096E-04  4.1096E-04  4.1096E-04  4.1096E-04  4.1096E-04  4.1096E-04  4.1096E-04  4.1096E-04  4.1096E-04  4.1096E-04
       4.1096E-04  4.1096E-04  4.1096E-04  4.1096E-04  4.1096E-04  4.1096E-04
  89   4.1096E-04  4.1096E-04  4.1096E-04  4.1096E-04  4.1096E-04  4.1096E-04  4.1096E-04  4.1096E-04  4.1096E-04  4.1096E-04
       4.1096E-04  4.1096E-04  4.1096E-04  4.1096E-04  4.1096E-04  4.1096E-04  4.1096E-04  4.1096E-04  4.1096E-04  4.1096E-04
       4.1096E-04  4.1096E-04  4.1096E-04  4.1096E-04  4.1096E-04  4.1096E-04  4.1096E-04  4.1096E-04  4.1096E-04  4.1096E-04
       4.1096E-04  4.1096E-04  4.1096E-04  4.1096E-04  4.1096E-04  4.1096E-04  4.1096E-04  4.1096E-04  4.1096E-04  4.1096E-04
       4.1096E-04  4.1096E-04  4.1096E-04  4.1096E-04  4.1096E-04  4.1096E-04  4.1096E-04  4.1096E-04  4.1096E-04  4.1096E-04
       4.1096E-04  4.1096E-04  4.1096E-04  4.1096E-04  4.1096E-04  4.1096E-04  4.1096E-04  4.1096E-04  4.1096E-04  4.1096E-04
       4.1096E-04  4.1096E-04  4.1096E-04  4.1096E-04  4.1096E-04  4.1096E-04  4.1096E-04  4.1096E-04  4.1096E-04  4.1096E-04
       4.1096E-04  4.1096E-04  4.1096E-04  4.1096E-04  4.1096E-04  4.1096E-04  4.1096E-04  4.1096E-04  4.1096E-04  4.1096E-04
       4.1096E-04  4.1096E-04  4.1096E-04  4.1096E-04  4.1096E-04  4.1096E-04  4.1096E-04  4.1096E-04  4.1096E-04  4.1096E-04
       4.1096E-04  4.1096E-04  4.1096E-04  4.1096E-04  4.1096E-04  4.1096E-04  4.1096E-04  4.1096E-04  4.1096E-04  4.1096E-04
       4.1096E-04  4.1096E-04  4.1096E-04  4.1096E-04  4.1096E-04  4.1096E-04  4.1096E-04  4.1096E-04  4.1096E-04  4.1096E-04
       4.1096E-04  4.1096E-04  4.1096E-04  4.1096E-04  4.1096E-04  4.1096E-04  4.1096E-04  4.1096E-04  4.1096E-04  4.1096E-04
       4.1096E-04  4.1096E-04  4.1096E-04  4.1096E-04  4.1096E-04  4.1096E-04  4.1096E-04  4.1096E-04  4.1096E-04  4.1096E-04
       4.1096E-04  4.1096E-04  4.1096E-04  4.1096E-04  4.1096E-04  4.1096E-04  4.1096E-04  4.1096E-04  4.1096E-04  4.1096E-04
       4.1096E-04  4.1096E-04  4.1096E-04  4.1096E-04  4.1096E-04  4.1096E-04  4.1096E-04  4.1096E-04  4.1096E-04  4.1096E-04
       4.1096E-04  4.1096E-04  4.1096E-04  4.1096E-04  4.1096E-04  4.1096E-04  4.1096E-04  4.1096E-04  4.1096E-04  4.1096E-04
       4.1096E-04  4.1096E-04  4.1096E-04  4.1096E-04  4.1096E-04  4.1096E-04  4.1096E-04  4.1096E-04  4.1096E-04  4.1096E-04
       4.1096E-04  4.1096E-04  4.1096E-04  4.1096E-04  4.1096E-04  4.1096E-04  4.1096E-04  4.1096E-04  4.1096E-04  4.1096E-04
       4.1096E-04  4.1096E-04  4.1096E-04  4.1096E-04  4.1096E-04  4.1096E-04
 
 SOLVING FOR HEAD 
                                                   Max.-Head-Change                         Max.-Flux-Residual
  Residual-Control   Outer-Iter.   Inner-Iter.     Column Row Layer    Maximum-Head-Change  Column Row Layer    Maximum-Flux-Residual          L2-NORM 
          0                 1          16           140   65     1      -0.1439553151E+00     150   56    1        -0.4110443452E-01      0.8928460889E+00
          0                 2           6           146   79     1      -0.1865006130E-01     141   52    1        -0.3736271750E-01      0.2069951760E+00
          0                 3           1            95   85     1      -0.5249309088E-03      36   86    1        -0.7378956303E-02      0.1616024453E+00
          0                 4           6           147   79     1      -0.4845281631E-01     135   25    1        -0.5174801336E-02      0.1565350766E+00
          0                 5           6            97   87     1      -0.1907187981E-01      35   83    1        -0.4322972626E-01      0.2597836885E+00
          0                 6           1            97   87     1      -0.5643566910E-03      36   86    1        -0.1261865662E-01      0.9847109796E-01
          0                 7           1           136    2     4      -0.5427309238E-03      32   88    1        -0.3670874052E-02      0.8205058315E-01
          0                 8           1            95   85     1      -0.1351451501E-03      33   85    1        -0.3946809098E-02      0.8128514975E-01
          0                 9           1            95   85     1      -0.6416304032E-03      28   86    1        -0.3364891279E-02      0.7974293861E-01
          0                10           1            95   85     1      -0.1272826235E-03      36   86    1        -0.4385467037E-02      0.7931073427E-01
                                                   Max.-Head-Change                         Max.-Flux-Residual
  Residual-Control   Outer-Iter.   Inner-Iter.     Column Row Layer    Maximum-Head-Change  Column Row Layer    Maximum-Flux-Residual          L2-NORM 
          0                11           1            95   85     1      -0.5495473861E-03      28   86    1        -0.3239705926E-02      0.7769042762E-01
          0                12           1            95   85     1      -0.1270070293E-03      36   86    1        -0.3748333082E-02      0.7716780401E-01
          0                13           1            95   85     1      -0.4927478285E-03      28   86    1        -0.3100052709E-02      0.7595858564E-01
          0                14           1            95   85     1      -0.1304626212E-03      36   86    1        -0.3492446151E-02      0.7548598567E-01
          0                15           1            95   85     1      -0.4086278309E-03      28   86    1        -0.3033991670E-02      0.7447182817E-01
          0                16           1            95   85     1      -0.1338324178E-03      36   86    1        -0.3179266001E-02      0.7399911020E-01
          0                17           1            95   85     1      -0.3678182907E-03      28   86    1        -0.2945291810E-02      0.7318438850E-01
          0                18           1            95   85     1      -0.1373955570E-03      36   86    1        -0.2991048270E-02      0.7273591218E-01
          0                19           1            95   85     1      -0.3314792334E-03      28   86    1        -0.2882293426E-02      0.7201851419E-01
          0                20           1            95   85     1      -0.1406082843E-03      36   86    1        -0.2829427831E-02      0.7158307386E-01
                                                   Max.-Head-Change                         Max.-Flux-Residual
  Residual-Control   Outer-Iter.   Inner-Iter.     Column Row Layer    Maximum-Head-Change  Column Row Layer    Maximum-Flux-Residual          L2-NORM 
          0                21           1            95   85     1      -0.3064985394E-03      28   86    1        -0.2819417743E-02      0.7094278839E-01
          0                22           1            95   85     1      -0.1433600678E-03      36   86    1        -0.2702650963E-02      0.7052002311E-01
          0                23           1            95   85     1      -0.2873532726E-03      28   86    1        -0.2762260381E-02      0.6993215851E-01
          0                24           1            95   85     1      -0.1455900556E-03      36   86    1        -0.2596935723E-02      0.6951944531E-01
          0                25           1            95   85     1      -0.2727540059E-03      28   86    1        -0.2708115615E-02      0.6897100058E-01
          0                26           1            95   85     1      -0.1472833032E-03      36   86    1        -0.2507229568E-02      0.6856686537E-01
          0                27           1            95   85     1      -0.2613772540E-03      28   86    1        -0.2656644909E-02      0.6804865368E-01
          0                28           1            95   85     1      -0.1484625573E-03      32   88    1        -0.2447730396E-02      0.6765199702E-01
          0                29           1            95   85     1      -0.2523795310E-03      28   86    1        -0.2607383532E-02      0.6715778520E-01
          0                30           1            95   85     1      -0.1491697253E-03      32   88    1        -0.2403134014E-02      0.6676784919E-01
                                                   Max.-Head-Change                         Max.-Flux-Residual
  Residual-Control   Outer-Iter.   Inner-Iter.     Column Row Layer    Maximum-Head-Change  Column Row Layer    Maximum-Flux-Residual          L2-NORM 
          0                31           1            95   85     1      -0.2451569703E-03      28   86    1        -0.2560039284E-02      0.6629322226E-01
          0                32           1            95   85     1      -0.1494580306E-03      32   88    1        -0.2360112267E-02      0.6590947780E-01
          0                33           1            95   85     1      -0.2392738647E-03      28   86    1        -0.2514400752E-02      0.6545124414E-01
          0                34           1            95   85     1      -0.1493852087E-03      32   88    1        -0.2318561310E-02      0.6507331844E-01
          0                35           1            95   85     1      -0.2344078739E-03      28   86    1        -0.2470313339E-02      0.6462911208E-01
          0                36           1            95   85     1      -0.1490091290E-03      25   86    1        -0.2278971253E-02      0.6425673487E-01
          0                37           1            95   85     1      -0.2303161718E-03      28   86    1        -0.2427652711E-02      0.6382477503E-01
          0                38           1            95   85     1      -0.1483845404E-03      25   86    1        -0.2248781500E-02      0.6345774041E-01
          0                39           1            95   85     1      -0.2268132434E-03      28   86    1        -0.2386320848E-02      0.6303666006E-01
          0                40           1            95   85     1      -0.1475610402E-03      25   86    1        -0.2218841575E-02      0.6267480745E-01
                                                   Max.-Head-Change                         Max.-Flux-Residual
  Residual-Control   Outer-Iter.   Inner-Iter.     Column Row Layer    Maximum-Head-Change  Column Row Layer    Maximum-Flux-Residual          L2-NORM 
          0                41           1            95   85     1      -0.2237556309E-03      28   86    1        -0.2346236259E-02      0.6226354197E-01
          0                42           1            95   85     1      -0.1465821915E-03      25   86    1        -0.2189138904E-02      0.6190673767E-01
          0                43           1            95   85     1      -0.2210324969E-03      28   86    1        -0.2307329094E-02      0.6150444615E-01
          0                44           1            95   85     1      -0.1454852109E-03      25   86    1        -0.2159665339E-02      0.6115257603E-01
          0                45           1            95   85     1      -0.2185564040E-03      28   86    1        -0.2269539982E-02      0.6075858495E-01
          0                46           1            95   85     1      -0.1442986704E-03      25   86    1        -0.2130417852E-02      0.6041154852E-01
          0                47           1           147   79     1      -0.2164780185E-03      28   86    1        -0.2232807456E-02      0.6002532596E-01

    ------------------------------------------------
       NWT REQUIRED           47 OUTER ITERATIONS 
       AND A TOTAL OF         77 INNER ITERATIONS.
    ------------------------------------------------

 OUTPUT CONTROL FOR STRESS PERIOD    3   TIME STEP    1
    SAVE DRAWDOWN FOR ALL LAYERS
    SAVE BUDGET
    PRINT BUDGET
 UBDSV2 SAVING "   CONSTANT HEAD" ON UNIT   9 AT TIME STEP  1, STRESS PERIOD   3
 UBDSV1 SAVING "FLOW RIGHT FACE " ON UNIT   9 AT TIME STEP  1, STRESS PERIOD   3
 UBDSV1 SAVING "FLOW FRONT FACE " ON UNIT   9 AT TIME STEP  1, STRESS PERIOD   3
 UBDSV1 SAVING "FLOW LOWER FACE " ON UNIT   9 AT TIME STEP  1, STRESS PERIOD   3
 UBDSV4 SAVING "   RIVER LEAKAGE" ON UNIT   9 AT TIME STEP  1, STRESS PERIOD   3
 UBDSV4 SAVING " HEAD DEP BOUNDS" ON UNIT   9 AT TIME STEP  1, STRESS PERIOD   3
 UBDSV3 SAVING "        RECHARGE" ON UNIT   9 AT TIME STEP  1, STRESS PERIOD   3

 SAVING SATURATED THICKNESS AND FLOW TERMS ON UNIT  136 FOR MT3DMS
 BY THE LINK-MT3DMS PACKAGE V7 AT TIME STEP    1, STRESS PERIOD    3


 DRAWDOWN WILL BE SAVED ON UNIT   38 AT END OF TIME STEP    1, STRESS PERIOD    3
1
  VOLUMETRIC BUDGET FOR ENTIRE MODEL AT END OF TIME STEP    1, STRESS PERIOD   3
  ------------------------------------------------------------------------------

     CUMULATIVE VOLUMES      L**3       RATES FOR THIS TIME STEP      L**3/T
     ------------------                 ------------------------

           IN:                                      IN:
           ---                                      ---
             STORAGE =           0.0000               STORAGE =           0.0000
       CONSTANT HEAD =           0.0000         CONSTANT HEAD =           0.0000
       RIVER LEAKAGE =    40517772.0000         RIVER LEAKAGE =        1376.3667
     HEAD DEP BOUNDS =     7761210.5000       HEAD DEP BOUNDS =         265.4197
            RECHARGE =    38886196.0000              RECHARGE =        1298.7177

            TOTAL IN =    87165184.0000              TOTAL IN =        2940.5039

          OUT:                                     OUT:
          ----                                     ----
             STORAGE =           0.0000               STORAGE =           0.0000
       CONSTANT HEAD =           0.0000         CONSTANT HEAD =           0.0000
       RIVER LEAKAGE =    87279408.0000         RIVER LEAKAGE =        2947.3340
     HEAD DEP BOUNDS =           0.0000       HEAD DEP BOUNDS =           0.0000
            RECHARGE =           0.0000              RECHARGE =           0.0000

           TOTAL OUT =    87279408.0000             TOTAL OUT =        2947.3340

            IN - OUT =     -114224.0000              IN - OUT =          -6.8301

 PERCENT DISCREPANCY =          -0.13     PERCENT DISCREPANCY =          -0.23






         TIME SUMMARY AT END OF TIME STEP    1 IN STRESS PERIOD    3
                    SECONDS     MINUTES      HOURS       DAYS        YEARS
                    -----------------------------------------------------------
   TIME STEP LENGTH 1.08418E+08 1.80696E+06  30116.      1254.8      3.4355    
 STRESS PERIOD TIME 1.08418E+08 1.80696E+06  30116.      1254.8      3.4355    
         TOTAL TIME 2.55051E+09 4.25086E+07 7.08476E+05  29520.      80.821    
1
 
 SOLVING FOR HEAD 
          0                 1           1            95   85     1      -0.1567030754E-03      25   86    1        -0.2101402031E-02      0.5968302384E-01

    ------------------------------------------------
       NWT REQUIRED            1 OUTER ITERATIONS 
       AND A TOTAL OF          1 INNER ITERATIONS.
    ------------------------------------------------

 OUTPUT CONTROL FOR STRESS PERIOD    3   TIME STEP    2
    SAVE DRAWDOWN FOR ALL LAYERS
    SAVE BUDGET
    PRINT BUDGET
 UBDSV2 SAVING "   CONSTANT HEAD" ON UNIT   9 AT TIME STEP  2, STRESS PERIOD   3
 UBDSV1 SAVING "FLOW RIGHT FACE " ON UNIT   9 AT TIME STEP  2, STRESS PERIOD   3
 UBDSV1 SAVING "FLOW FRONT FACE " ON UNIT   9 AT TIME STEP  2, STRESS PERIOD   3
 UBDSV1 SAVING "FLOW LOWER FACE " ON UNIT   9 AT TIME STEP  2, STRESS PERIOD   3
 UBDSV4 SAVING "   RIVER LEAKAGE" ON UNIT   9 AT TIME STEP  2, STRESS PERIOD   3
 UBDSV4 SAVING " HEAD DEP BOUNDS" ON UNIT   9 AT TIME STEP  2, STRESS PERIOD   3
 UBDSV3 SAVING "        RECHARGE" ON UNIT   9 AT TIME STEP  2, STRESS PERIOD   3

 SAVING SATURATED THICKNESS AND FLOW TERMS ON UNIT  136 FOR MT3DMS
 BY THE LINK-MT3DMS PACKAGE V7 AT TIME STEP    2, STRESS PERIOD    3


 DRAWDOWN WILL BE SAVED ON UNIT   38 AT END OF TIME STEP    2, STRESS PERIOD    3
1
  VOLUMETRIC BUDGET FOR ENTIRE MODEL AT END OF TIME STEP    2, STRESS PERIOD   3
  ------------------------------------------------------------------------------

     CUMULATIVE VOLUMES      L**3       RATES FOR THIS TIME STEP      L**3/T
     ------------------                 ------------------------

           IN:                                      IN:
           ---                                      ---
             STORAGE =           0.0000               STORAGE =           0.0000
       CONSTANT HEAD =           0.0000         CONSTANT HEAD =           0.0000
       RIVER LEAKAGE =    42244896.0000         RIVER LEAKAGE =        1376.3760
     HEAD DEP BOUNDS =     8094272.0000       HEAD DEP BOUNDS =         265.4230
            RECHARGE =    40515872.0000              RECHARGE =        1298.7177

            TOTAL IN =    90855040.0000              TOTAL IN =        2940.5166

          OUT:                                     OUT:
          ----                                     ----
             STORAGE =           0.0000               STORAGE =           0.0000
       CONSTANT HEAD =           0.0000         CONSTANT HEAD =           0.0000
       RIVER LEAKAGE =    90977792.0000         RIVER LEAKAGE =        2947.3110
     HEAD DEP BOUNDS =           0.0000       HEAD DEP BOUNDS =           0.0000
            RECHARGE =           0.0000              RECHARGE =           0.0000

           TOTAL OUT =    90977792.0000             TOTAL OUT =        2947.3110

            IN - OUT =     -122752.0000              IN - OUT =          -6.7944

 PERCENT DISCREPANCY =          -0.14     PERCENT DISCREPANCY =          -0.23






         TIME SUMMARY AT END OF TIME STEP    2 IN STRESS PERIOD    3
                    SECONDS     MINUTES      HOURS       DAYS        YEARS
                    -----------------------------------------------------------
   TIME STEP LENGTH 1.08418E+08 1.80696E+06  30116.      1254.8      3.4355    
 STRESS PERIOD TIME 2.16835E+08 3.61392E+06  60232.      2509.7      6.8711    
         TOTAL TIME 2.65893E+09 4.43155E+07 7.38592E+05  30775.      84.256    
1
 
 SOLVING FOR HEAD 
          0                 1           1           147   79     1      -0.1543962630E-03      28   86    1        -0.2223067684E-02      0.5918980004E-01

    ------------------------------------------------
       NWT REQUIRED            1 OUTER ITERATIONS 
       AND A TOTAL OF          1 INNER ITERATIONS.
    ------------------------------------------------

 OUTPUT CONTROL FOR STRESS PERIOD    3   TIME STEP    3
    SAVE DRAWDOWN FOR ALL LAYERS
    SAVE BUDGET
    PRINT BUDGET
 UBDSV2 SAVING "   CONSTANT HEAD" ON UNIT   9 AT TIME STEP  3, STRESS PERIOD   3
 UBDSV1 SAVING "FLOW RIGHT FACE " ON UNIT   9 AT TIME STEP  3, STRESS PERIOD   3
 UBDSV1 SAVING "FLOW FRONT FACE " ON UNIT   9 AT TIME STEP  3, STRESS PERIOD   3
 UBDSV1 SAVING "FLOW LOWER FACE " ON UNIT   9 AT TIME STEP  3, STRESS PERIOD   3
 UBDSV4 SAVING "   RIVER LEAKAGE" ON UNIT   9 AT TIME STEP  3, STRESS PERIOD   3
 UBDSV4 SAVING " HEAD DEP BOUNDS" ON UNIT   9 AT TIME STEP  3, STRESS PERIOD   3
 UBDSV3 SAVING "        RECHARGE" ON UNIT   9 AT TIME STEP  3, STRESS PERIOD   3

 SAVING SATURATED THICKNESS AND FLOW TERMS ON UNIT  136 FOR MT3DMS
 BY THE LINK-MT3DMS PACKAGE V7 AT TIME STEP    3, STRESS PERIOD    3


 DRAWDOWN WILL BE SAVED ON UNIT   38 AT END OF TIME STEP    3, STRESS PERIOD    3
1
  VOLUMETRIC BUDGET FOR ENTIRE MODEL AT END OF TIME STEP    3, STRESS PERIOD   3
  ------------------------------------------------------------------------------

     CUMULATIVE VOLUMES      L**3       RATES FOR THIS TIME STEP      L**3/T
     ------------------                 ------------------------

           IN:                                      IN:
           ---                                      ---
             STORAGE =           0.0000               STORAGE =           0.0000
       CONSTANT HEAD =           0.0000         CONSTANT HEAD =           0.0000
       RIVER LEAKAGE =    43972032.0000         RIVER LEAKAGE =        1376.3855
     HEAD DEP BOUNDS =     8427338.0000       HEAD DEP BOUNDS =         265.4264
            RECHARGE =    42145548.0000              RECHARGE =        1298.7177

            TOTAL IN =    94544912.0000              TOTAL IN =        2940.5295

          OUT:                                     OUT:
          ----                                     ----
             STORAGE =           0.0000               STORAGE =           0.0000
       CONSTANT HEAD =           0.0000         CONSTANT HEAD =           0.0000
       RIVER LEAKAGE =    94676144.0000         RIVER LEAKAGE =        2947.2874
     HEAD DEP BOUNDS =           0.0000       HEAD DEP BOUNDS =           0.0000
            RECHARGE =           0.0000              RECHARGE =           0.0000

           TOTAL OUT =    94676144.0000             TOTAL OUT =        2947.2874

            IN - OUT =     -131232.0000              IN - OUT =          -6.7578

 PERCENT DISCREPANCY =          -0.14     PERCENT DISCREPANCY =          -0.23






         TIME SUMMARY AT END OF TIME STEP    3 IN STRESS PERIOD    3
                    SECONDS     MINUTES      HOURS       DAYS        YEARS
                    -----------------------------------------------------------
   TIME STEP LENGTH 1.08418E+08 1.80696E+06  30116.      1254.8      3.4355    
 STRESS PERIOD TIME 3.25253E+08 5.42088E+06  90348.      3764.5      10.307    
         TOTAL TIME 2.76735E+09 4.61225E+07 7.68708E+05  32030.      87.692    
1
 
 SOLVING FOR HEAD 
          0                 1           1            95   85     1      -0.2109299276E-03      25   86    1        -0.2036855323E-02      0.5889062800E-01

    ------------------------------------------------
       NWT REQUIRED            1 OUTER ITERATIONS 
       AND A TOTAL OF          1 INNER ITERATIONS.
    ------------------------------------------------

 OUTPUT CONTROL FOR STRESS PERIOD    3   TIME STEP    4
    SAVE DRAWDOWN FOR ALL LAYERS
    SAVE BUDGET
    PRINT BUDGET
 UBDSV2 SAVING "   CONSTANT HEAD" ON UNIT   9 AT TIME STEP  4, STRESS PERIOD   3
 UBDSV1 SAVING "FLOW RIGHT FACE " ON UNIT   9 AT TIME STEP  4, STRESS PERIOD   3
 UBDSV1 SAVING "FLOW FRONT FACE " ON UNIT   9 AT TIME STEP  4, STRESS PERIOD   3
 UBDSV1 SAVING "FLOW LOWER FACE " ON UNIT   9 AT TIME STEP  4, STRESS PERIOD   3
 UBDSV4 SAVING "   RIVER LEAKAGE" ON UNIT   9 AT TIME STEP  4, STRESS PERIOD   3
 UBDSV4 SAVING " HEAD DEP BOUNDS" ON UNIT   9 AT TIME STEP  4, STRESS PERIOD   3
 UBDSV3 SAVING "        RECHARGE" ON UNIT   9 AT TIME STEP  4, STRESS PERIOD   3

 SAVING SATURATED THICKNESS AND FLOW TERMS ON UNIT  136 FOR MT3DMS
 BY THE LINK-MT3DMS PACKAGE V7 AT TIME STEP    4, STRESS PERIOD    3


 DRAWDOWN WILL BE SAVED ON UNIT   38 AT END OF TIME STEP    4, STRESS PERIOD    3
1
  VOLUMETRIC BUDGET FOR ENTIRE MODEL AT END OF TIME STEP    4, STRESS PERIOD   3
  ------------------------------------------------------------------------------

     CUMULATIVE VOLUMES      L**3       RATES FOR THIS TIME STEP      L**3/T
     ------------------                 ------------------------

           IN:                                      IN:
           ---                                      ---
             STORAGE =           0.0000               STORAGE =           0.0000
       CONSTANT HEAD =           0.0000         CONSTANT HEAD =           0.0000
       RIVER LEAKAGE =    45699184.0000         RIVER LEAKAGE =        1376.3979
     HEAD DEP BOUNDS =     8760410.0000       HEAD DEP BOUNDS =         265.4309
            RECHARGE =    43775224.0000              RECHARGE =        1298.7177

            TOTAL IN =    98234816.0000              TOTAL IN =        2940.5464

          OUT:                                     OUT:
          ----                                     ----
             STORAGE =           0.0000               STORAGE =           0.0000
       CONSTANT HEAD =           0.0000         CONSTANT HEAD =           0.0000
       RIVER LEAKAGE =    98374456.0000         RIVER LEAKAGE =        2947.2563
     HEAD DEP BOUNDS =           0.0000       HEAD DEP BOUNDS =           0.0000
            RECHARGE =           0.0000              RECHARGE =           0.0000

           TOTAL OUT =    98374456.0000             TOTAL OUT =        2947.2563

            IN - OUT =     -139640.0000              IN - OUT =          -6.7100

 PERCENT DISCREPANCY =          -0.14     PERCENT DISCREPANCY =          -0.23






         TIME SUMMARY AT END OF TIME STEP    4 IN STRESS PERIOD    3
                    SECONDS     MINUTES      HOURS       DAYS        YEARS
                    -----------------------------------------------------------
   TIME STEP LENGTH 1.08418E+08 1.80696E+06  30116.      1254.8      3.4355    
 STRESS PERIOD TIME 4.33670E+08 7.22784E+06 1.20464E+05  5019.3      13.742    
         TOTAL TIME 2.87577E+09 4.79294E+07 7.98824E+05  33284.      91.128    
1
 
 SOLVING FOR HEAD 
          0                 1           1           147   79     1      -0.1320954857E-03      28   86    1        -0.2213942818E-02      0.5851313172E-01

    ------------------------------------------------
       NWT REQUIRED            1 OUTER ITERATIONS 
       AND A TOTAL OF          1 INNER ITERATIONS.
    ------------------------------------------------

 OUTPUT CONTROL FOR STRESS PERIOD    3   TIME STEP    5
    SAVE DRAWDOWN FOR ALL LAYERS
    SAVE BUDGET
    PRINT BUDGET
 UBDSV2 SAVING "   CONSTANT HEAD" ON UNIT   9 AT TIME STEP  5, STRESS PERIOD   3
 UBDSV1 SAVING "FLOW RIGHT FACE " ON UNIT   9 AT TIME STEP  5, STRESS PERIOD   3
 UBDSV1 SAVING "FLOW FRONT FACE " ON UNIT   9 AT TIME STEP  5, STRESS PERIOD   3
 UBDSV1 SAVING "FLOW LOWER FACE " ON UNIT   9 AT TIME STEP  5, STRESS PERIOD   3
 UBDSV4 SAVING "   RIVER LEAKAGE" ON UNIT   9 AT TIME STEP  5, STRESS PERIOD   3
 UBDSV4 SAVING " HEAD DEP BOUNDS" ON UNIT   9 AT TIME STEP  5, STRESS PERIOD   3
 UBDSV3 SAVING "        RECHARGE" ON UNIT   9 AT TIME STEP  5, STRESS PERIOD   3

 SAVING SATURATED THICKNESS AND FLOW TERMS ON UNIT  136 FOR MT3DMS
 BY THE LINK-MT3DMS PACKAGE V7 AT TIME STEP    5, STRESS PERIOD    3


 DRAWDOWN WILL BE SAVED ON UNIT   38 AT END OF TIME STEP    5, STRESS PERIOD    3
1
  VOLUMETRIC BUDGET FOR ENTIRE MODEL AT END OF TIME STEP    5, STRESS PERIOD   3
  ------------------------------------------------------------------------------

     CUMULATIVE VOLUMES      L**3       RATES FOR THIS TIME STEP      L**3/T
     ------------------                 ------------------------

           IN:                                      IN:
           ---                                      ---
             STORAGE =           0.0000               STORAGE =           0.0000
       CONSTANT HEAD =           0.0000         CONSTANT HEAD =           0.0000
       RIVER LEAKAGE =    47426344.0000         RIVER LEAKAGE =        1376.4061
     HEAD DEP BOUNDS =     9093485.0000       HEAD DEP BOUNDS =         265.4338
            RECHARGE =    45404900.0000              RECHARGE =        1298.7177

            TOTAL IN =   101924728.0000              TOTAL IN =        2940.5576

          OUT:                                     OUT:
          ----                                     ----
             STORAGE =           0.0000               STORAGE =           0.0000
       CONSTANT HEAD =           0.0000         CONSTANT HEAD =           0.0000
       RIVER LEAKAGE =   102072744.0000         RIVER LEAKAGE =        2947.2363
     HEAD DEP BOUNDS =           0.0000       HEAD DEP BOUNDS =           0.0000
            RECHARGE =           0.0000              RECHARGE =           0.0000

           TOTAL OUT =   102072744.0000             TOTAL OUT =        2947.2363

            IN - OUT =     -148016.0000              IN - OUT =          -6.6787

 PERCENT DISCREPANCY =          -0.15     PERCENT DISCREPANCY =          -0.23






         TIME SUMMARY AT END OF TIME STEP    5 IN STRESS PERIOD    3
                    SECONDS     MINUTES      HOURS       DAYS        YEARS
                    -----------------------------------------------------------
   TIME STEP LENGTH 1.08418E+08 1.80696E+06  30116.      1254.8      3.4355    
 STRESS PERIOD TIME 5.42088E+08 9.03480E+06 1.50580E+05  6274.2      17.178    
         TOTAL TIME 2.98418E+09 4.97364E+07 8.28940E+05  34539.      94.563    
1
 
 SOLVING FOR HEAD 
          0                 1           1            95   85     1      -0.2405815749E-03      25   86    1        -0.1995694824E-02      0.5817802024E-01

    ------------------------------------------------
       NWT REQUIRED            1 OUTER ITERATIONS 
       AND A TOTAL OF          1 INNER ITERATIONS.
    ------------------------------------------------

 OUTPUT CONTROL FOR STRESS PERIOD    3   TIME STEP    6
    SAVE HEAD FOR ALL LAYERS
    SAVE DRAWDOWN FOR ALL LAYERS
    SAVE BUDGET
    PRINT BUDGET
 UBDSV2 SAVING "   CONSTANT HEAD" ON UNIT   9 AT TIME STEP  6, STRESS PERIOD   3
 UBDSV1 SAVING "FLOW RIGHT FACE " ON UNIT   9 AT TIME STEP  6, STRESS PERIOD   3
 UBDSV1 SAVING "FLOW FRONT FACE " ON UNIT   9 AT TIME STEP  6, STRESS PERIOD   3
 UBDSV1 SAVING "FLOW LOWER FACE " ON UNIT   9 AT TIME STEP  6, STRESS PERIOD   3
 UBDSV4 SAVING "   RIVER LEAKAGE" ON UNIT   9 AT TIME STEP  6, STRESS PERIOD   3
 UBDSV4 SAVING " HEAD DEP BOUNDS" ON UNIT   9 AT TIME STEP  6, STRESS PERIOD   3
 UBDSV3 SAVING "        RECHARGE" ON UNIT   9 AT TIME STEP  6, STRESS PERIOD   3

 SAVING SATURATED THICKNESS AND FLOW TERMS ON UNIT  136 FOR MT3DMS
 BY THE LINK-MT3DMS PACKAGE V7 AT TIME STEP    6, STRESS PERIOD    3


 HEAD WILL BE SAVED ON UNIT   37 AT END OF TIME STEP    6, STRESS PERIOD    3

 DRAWDOWN WILL BE SAVED ON UNIT   38 AT END OF TIME STEP    6, STRESS PERIOD    3
1
  VOLUMETRIC BUDGET FOR ENTIRE MODEL AT END OF TIME STEP    6, STRESS PERIOD   3
  ------------------------------------------------------------------------------

     CUMULATIVE VOLUMES      L**3       RATES FOR THIS TIME STEP      L**3/T
     ------------------                 ------------------------

           IN:                                      IN:
           ---                                      ---
             STORAGE =           0.0000               STORAGE =           0.0000
       CONSTANT HEAD =           0.0000         CONSTANT HEAD =           0.0000
       RIVER LEAKAGE =    49153524.0000         RIVER LEAKAGE =        1376.4203
     HEAD DEP BOUNDS =     9426567.0000       HEAD DEP BOUNDS =         265.4389
            RECHARGE =    47034576.0000              RECHARGE =        1298.7177

            TOTAL IN =   105614672.0000              TOTAL IN =        2940.5767

          OUT:                                     OUT:
          ----                                     ----
             STORAGE =           0.0000               STORAGE =           0.0000
       CONSTANT HEAD =           0.0000         CONSTANT HEAD =           0.0000
       RIVER LEAKAGE =   105770992.0000         RIVER LEAKAGE =        2947.2009
     HEAD DEP BOUNDS =           0.0000       HEAD DEP BOUNDS =           0.0000
            RECHARGE =           0.0000              RECHARGE =           0.0000

           TOTAL OUT =   105770992.0000             TOTAL OUT =        2947.2009

            IN - OUT =     -156320.0000              IN - OUT =          -6.6243

 PERCENT DISCREPANCY =          -0.15     PERCENT DISCREPANCY =          -0.23






         TIME SUMMARY AT END OF TIME STEP    6 IN STRESS PERIOD    3
                    SECONDS     MINUTES      HOURS       DAYS        YEARS
                    -----------------------------------------------------------
   TIME STEP LENGTH 1.08418E+08 1.80696E+06  30116.      1254.8      3.4355    
 STRESS PERIOD TIME 6.50506E+08 1.08418E+07 1.80696E+05  7529.0      20.613    
         TOTAL TIME 3.09260E+09 5.15434E+07 8.59056E+05  35794.      97.999    
1
1
                            STRESS PERIOD NO.    4, LENGTH =   14610.00    
                            -----------------------------------------------

                              NUMBER OF TIME STEPS =     6

                               MULTIPLIER FOR DELT =     1.000

                            INITIAL TIME STEP SIZE =   2435.000    

 REUSING NON-PARAMETER RIVER REACHES FROM LAST STRESS PERIOD

    318 RIVER REACHES

 REUSING NON-PARAMETER GHB CELLS FROM LAST STRESS PERIOD

     12 GHB CELLS

 REUSING RECH FROM LAST STRESS PERIOD
 
 SOLVING FOR HEAD 
          0                 1           1           147   79     1      -0.1252677102E-03      28   86    1        -0.2197521972E-02      0.5780574292E-01

    ------------------------------------------------
       NWT REQUIRED            1 OUTER ITERATIONS 
       AND A TOTAL OF          1 INNER ITERATIONS.
    ------------------------------------------------

 OUTPUT CONTROL FOR STRESS PERIOD    4   TIME STEP    1
    SAVE DRAWDOWN FOR ALL LAYERS
    SAVE BUDGET
    PRINT BUDGET
 UBDSV2 SAVING "   CONSTANT HEAD" ON UNIT   9 AT TIME STEP  1, STRESS PERIOD   4
 UBDSV1 SAVING "FLOW RIGHT FACE " ON UNIT   9 AT TIME STEP  1, STRESS PERIOD   4
 UBDSV1 SAVING "FLOW FRONT FACE " ON UNIT   9 AT TIME STEP  1, STRESS PERIOD   4
 UBDSV1 SAVING "FLOW LOWER FACE " ON UNIT   9 AT TIME STEP  1, STRESS PERIOD   4
 UBDSV4 SAVING "   RIVER LEAKAGE" ON UNIT   9 AT TIME STEP  1, STRESS PERIOD   4
 UBDSV4 SAVING " HEAD DEP BOUNDS" ON UNIT   9 AT TIME STEP  1, STRESS PERIOD   4
 UBDSV3 SAVING "        RECHARGE" ON UNIT   9 AT TIME STEP  1, STRESS PERIOD   4

 SAVING SATURATED THICKNESS AND FLOW TERMS ON UNIT  136 FOR MT3DMS
 BY THE LINK-MT3DMS PACKAGE V7 AT TIME STEP    1, STRESS PERIOD    4


 DRAWDOWN WILL BE SAVED ON UNIT   38 AT END OF TIME STEP    1, STRESS PERIOD    4
1
  VOLUMETRIC BUDGET FOR ENTIRE MODEL AT END OF TIME STEP    1, STRESS PERIOD   4
  ------------------------------------------------------------------------------

     CUMULATIVE VOLUMES      L**3       RATES FOR THIS TIME STEP      L**3/T
     ------------------                 ------------------------

           IN:                                      IN:
           ---                                      ---
             STORAGE =           0.0000               STORAGE =           0.0000
       CONSTANT HEAD =           0.0000         CONSTANT HEAD =           0.0000
       RIVER LEAKAGE =    52505124.0000         RIVER LEAKAGE =        1376.4279
     HEAD DEP BOUNDS =    10072917.0000       HEAD DEP BOUNDS =         265.4416
            RECHARGE =    50196952.0000              RECHARGE =        1298.7177

            TOTAL IN =   112774992.0000              TOTAL IN =        2940.5869

          OUT:                                     OUT:
          ----                                     ----
             STORAGE =           0.0000               STORAGE =           0.0000
       CONSTANT HEAD =           0.0000         CONSTANT HEAD =           0.0000
       RIVER LEAKAGE =   112947384.0000         RIVER LEAKAGE =        2947.1821
     HEAD DEP BOUNDS =           0.0000       HEAD DEP BOUNDS =           0.0000
            RECHARGE =           0.0000              RECHARGE =           0.0000

           TOTAL OUT =   112947384.0000             TOTAL OUT =        2947.1821

            IN - OUT =     -172392.0000              IN - OUT =          -6.5952

 PERCENT DISCREPANCY =          -0.15     PERCENT DISCREPANCY =          -0.22






         TIME SUMMARY AT END OF TIME STEP    1 IN STRESS PERIOD    4
                    SECONDS     MINUTES      HOURS       DAYS        YEARS
                    -----------------------------------------------------------
   TIME STEP LENGTH 2.10384E+08 3.50640E+06  58440.      2435.0      6.6667    
 STRESS PERIOD TIME 2.10384E+08 3.50640E+06  58440.      2435.0      6.6667    
         TOTAL TIME 3.30299E+09 5.50498E+07 9.17496E+05  38229.      104.67    
1
 
 SOLVING FOR HEAD 
          0                 1           1            95   85     1      -0.2452355152E-03      25   86    1        -0.1964526018E-02      0.5744541516E-01

    ------------------------------------------------
       NWT REQUIRED            1 OUTER ITERATIONS 
       AND A TOTAL OF          1 INNER ITERATIONS.
    ------------------------------------------------

 OUTPUT CONTROL FOR STRESS PERIOD    4   TIME STEP    2
    SAVE DRAWDOWN FOR ALL LAYERS
    SAVE BUDGET
    PRINT BUDGET
 UBDSV2 SAVING "   CONSTANT HEAD" ON UNIT   9 AT TIME STEP  2, STRESS PERIOD   4
 UBDSV1 SAVING "FLOW RIGHT FACE " ON UNIT   9 AT TIME STEP  2, STRESS PERIOD   4
 UBDSV1 SAVING "FLOW FRONT FACE " ON UNIT   9 AT TIME STEP  2, STRESS PERIOD   4
 UBDSV1 SAVING "FLOW LOWER FACE " ON UNIT   9 AT TIME STEP  2, STRESS PERIOD   4
 UBDSV4 SAVING "   RIVER LEAKAGE" ON UNIT   9 AT TIME STEP  2, STRESS PERIOD   4
 UBDSV4 SAVING " HEAD DEP BOUNDS" ON UNIT   9 AT TIME STEP  2, STRESS PERIOD   4
 UBDSV3 SAVING "        RECHARGE" ON UNIT   9 AT TIME STEP  2, STRESS PERIOD   4

 SAVING SATURATED THICKNESS AND FLOW TERMS ON UNIT  136 FOR MT3DMS
 BY THE LINK-MT3DMS PACKAGE V7 AT TIME STEP    2, STRESS PERIOD    4


 DRAWDOWN WILL BE SAVED ON UNIT   38 AT END OF TIME STEP    2, STRESS PERIOD    4
1
  VOLUMETRIC BUDGET FOR ENTIRE MODEL AT END OF TIME STEP    2, STRESS PERIOD   4
  ------------------------------------------------------------------------------

     CUMULATIVE VOLUMES      L**3       RATES FOR THIS TIME STEP      L**3/T
     ------------------                 ------------------------

           IN:                                      IN:
           ---                                      ---
             STORAGE =           0.0000               STORAGE =           0.0000
       CONSTANT HEAD =           0.0000         CONSTANT HEAD =           0.0000
       RIVER LEAKAGE =    55856760.0000         RIVER LEAKAGE =        1376.4423
     HEAD DEP BOUNDS =    10719280.0000       HEAD DEP BOUNDS =         265.4468
            RECHARGE =    53359328.0000              RECHARGE =        1298.7177

            TOTAL IN =   119935368.0000              TOTAL IN =        2940.6069

          OUT:                                     OUT:
          ----                                     ----
             STORAGE =           0.0000               STORAGE =           0.0000
       CONSTANT HEAD =           0.0000         CONSTANT HEAD =           0.0000
       RIVER LEAKAGE =   120123688.0000         RIVER LEAKAGE =        2947.1462
     HEAD DEP BOUNDS =           0.0000       HEAD DEP BOUNDS =           0.0000
            RECHARGE =           0.0000              RECHARGE =           0.0000

           TOTAL OUT =   120123688.0000             TOTAL OUT =        2947.1462

            IN - OUT =     -188320.0000              IN - OUT =          -6.5393

 PERCENT DISCREPANCY =          -0.16     PERCENT DISCREPANCY =          -0.22






         TIME SUMMARY AT END OF TIME STEP    2 IN STRESS PERIOD    4
                    SECONDS     MINUTES      HOURS       DAYS        YEARS
                    -----------------------------------------------------------
   TIME STEP LENGTH 2.10384E+08 3.50640E+06  58440.      2435.0      6.6667    
 STRESS PERIOD TIME 4.20768E+08 7.01280E+06 1.16880E+05  4870.0      13.333    
         TOTAL TIME 3.51337E+09 5.85562E+07 9.75936E+05  40664.      111.33    
1
 
 SOLVING FOR HEAD 
          0                 1           1           147   79     1      -0.1242540443E-03      28   86    1        -0.2170966007E-02      0.5708235244E-01

    ------------------------------------------------
       NWT REQUIRED            1 OUTER ITERATIONS 
       AND A TOTAL OF          1 INNER ITERATIONS.
    ------------------------------------------------

 OUTPUT CONTROL FOR STRESS PERIOD    4   TIME STEP    3
    SAVE DRAWDOWN FOR ALL LAYERS
    SAVE BUDGET
    PRINT BUDGET
 UBDSV2 SAVING "   CONSTANT HEAD" ON UNIT   9 AT TIME STEP  3, STRESS PERIOD   4
 UBDSV1 SAVING "FLOW RIGHT FACE " ON UNIT   9 AT TIME STEP  3, STRESS PERIOD   4
 UBDSV1 SAVING "FLOW FRONT FACE " ON UNIT   9 AT TIME STEP  3, STRESS PERIOD   4
 UBDSV1 SAVING "FLOW LOWER FACE " ON UNIT   9 AT TIME STEP  3, STRESS PERIOD   4
 UBDSV4 SAVING "   RIVER LEAKAGE" ON UNIT   9 AT TIME STEP  3, STRESS PERIOD   4
 UBDSV4 SAVING " HEAD DEP BOUNDS" ON UNIT   9 AT TIME STEP  3, STRESS PERIOD   4
 UBDSV3 SAVING "        RECHARGE" ON UNIT   9 AT TIME STEP  3, STRESS PERIOD   4

 SAVING SATURATED THICKNESS AND FLOW TERMS ON UNIT  136 FOR MT3DMS
 BY THE LINK-MT3DMS PACKAGE V7 AT TIME STEP    3, STRESS PERIOD    4


 DRAWDOWN WILL BE SAVED ON UNIT   38 AT END OF TIME STEP    3, STRESS PERIOD    4
1
  VOLUMETRIC BUDGET FOR ENTIRE MODEL AT END OF TIME STEP    3, STRESS PERIOD   4
  ------------------------------------------------------------------------------

     CUMULATIVE VOLUMES      L**3       RATES FOR THIS TIME STEP      L**3/T
     ------------------                 ------------------------

           IN:                                      IN:
           ---                                      ---
             STORAGE =           0.0000               STORAGE =           0.0000
       CONSTANT HEAD =           0.0000         CONSTANT HEAD =           0.0000
       RIVER LEAKAGE =    59208416.0000         RIVER LEAKAGE =        1376.4497
     HEAD DEP BOUNDS =    11365650.0000       HEAD DEP BOUNDS =         265.4495
            RECHARGE =    56521704.0000              RECHARGE =        1298.7177

            TOTAL IN =   127095768.0000              TOTAL IN =        2940.6167

          OUT:                                     OUT:
          ----                                     ----
             STORAGE =           0.0000               STORAGE =           0.0000
       CONSTANT HEAD =           0.0000         CONSTANT HEAD =           0.0000
       RIVER LEAKAGE =   127299944.0000         RIVER LEAKAGE =        2947.1277
     HEAD DEP BOUNDS =           0.0000       HEAD DEP BOUNDS =           0.0000
            RECHARGE =           0.0000              RECHARGE =           0.0000

           TOTAL OUT =   127299944.0000             TOTAL OUT =        2947.1277

            IN - OUT =     -204176.0000              IN - OUT =          -6.5110

 PERCENT DISCREPANCY =          -0.16     PERCENT DISCREPANCY =          -0.22






         TIME SUMMARY AT END OF TIME STEP    3 IN STRESS PERIOD    4
                    SECONDS     MINUTES      HOURS       DAYS        YEARS
                    -----------------------------------------------------------
   TIME STEP LENGTH 2.10384E+08 3.50640E+06  58440.      2435.0      6.6667    
 STRESS PERIOD TIME 6.31152E+08 1.05192E+07 1.75320E+05  7305.0      20.000    
         TOTAL TIME 3.72375E+09 6.20626E+07 1.03438E+06  43099.      118.00    
1
 
 SOLVING FOR HEAD 
          0                 1           1            95   85     1      -0.2357630856E-03      25   86    1        -0.1939276000E-02      0.5671852257E-01

    ------------------------------------------------
       NWT REQUIRED            1 OUTER ITERATIONS 
       AND A TOTAL OF          1 INNER ITERATIONS.
    ------------------------------------------------

 OUTPUT CONTROL FOR STRESS PERIOD    4   TIME STEP    4
    SAVE DRAWDOWN FOR ALL LAYERS
    SAVE BUDGET
    PRINT BUDGET
 UBDSV2 SAVING "   CONSTANT HEAD" ON UNIT   9 AT TIME STEP  4, STRESS PERIOD   4
 UBDSV1 SAVING "FLOW RIGHT FACE " ON UNIT   9 AT TIME STEP  4, STRESS PERIOD   4
 UBDSV1 SAVING "FLOW FRONT FACE " ON UNIT   9 AT TIME STEP  4, STRESS PERIOD   4
 UBDSV1 SAVING "FLOW LOWER FACE " ON UNIT   9 AT TIME STEP  4, STRESS PERIOD   4
 UBDSV4 SAVING "   RIVER LEAKAGE" ON UNIT   9 AT TIME STEP  4, STRESS PERIOD   4
 UBDSV4 SAVING " HEAD DEP BOUNDS" ON UNIT   9 AT TIME STEP  4, STRESS PERIOD   4
 UBDSV3 SAVING "        RECHARGE" ON UNIT   9 AT TIME STEP  4, STRESS PERIOD   4

 SAVING SATURATED THICKNESS AND FLOW TERMS ON UNIT  136 FOR MT3DMS
 BY THE LINK-MT3DMS PACKAGE V7 AT TIME STEP    4, STRESS PERIOD    4


 DRAWDOWN WILL BE SAVED ON UNIT   38 AT END OF TIME STEP    4, STRESS PERIOD    4
1
  VOLUMETRIC BUDGET FOR ENTIRE MODEL AT END OF TIME STEP    4, STRESS PERIOD   4
  ------------------------------------------------------------------------------

     CUMULATIVE VOLUMES      L**3       RATES FOR THIS TIME STEP      L**3/T
     ------------------                 ------------------------

           IN:                                      IN:
           ---                                      ---
             STORAGE =           0.0000               STORAGE =           0.0000
       CONSTANT HEAD =           0.0000         CONSTANT HEAD =           0.0000
       RIVER LEAKAGE =    62560104.0000         RIVER LEAKAGE =        1376.4635
     HEAD DEP BOUNDS =    12012032.0000       HEAD DEP BOUNDS =         265.4545
            RECHARGE =    59684080.0000              RECHARGE =        1298.7177

            TOTAL IN =   134256224.0000              TOTAL IN =        2940.6357

          OUT:                                     OUT:
          ----                                     ----
             STORAGE =           0.0000               STORAGE =           0.0000
       CONSTANT HEAD =           0.0000         CONSTANT HEAD =           0.0000
       RIVER LEAKAGE =   134476112.0000         RIVER LEAKAGE =        2947.0935
     HEAD DEP BOUNDS =           0.0000       HEAD DEP BOUNDS =           0.0000
            RECHARGE =           0.0000              RECHARGE =           0.0000

           TOTAL OUT =   134476112.0000             TOTAL OUT =        2947.0935

            IN - OUT =     -219888.0000              IN - OUT =          -6.4578

 PERCENT DISCREPANCY =          -0.16     PERCENT DISCREPANCY =          -0.22






         TIME SUMMARY AT END OF TIME STEP    4 IN STRESS PERIOD    4
                    SECONDS     MINUTES      HOURS       DAYS        YEARS
                    -----------------------------------------------------------
   TIME STEP LENGTH 2.10384E+08 3.50640E+06  58440.      2435.0      6.6667    
 STRESS PERIOD TIME 8.41536E+08 1.40256E+07 2.33760E+05  9740.0      26.667    
         TOTAL TIME 3.93414E+09 6.55690E+07 1.09282E+06  45534.      124.67    
1
 
 SOLVING FOR HEAD 
          0                 1           1           147   79     1      -0.1259010064E-03      28   86    1        -0.2137713833E-02      0.5637028853E-01

    ------------------------------------------------
       NWT REQUIRED            1 OUTER ITERATIONS 
       AND A TOTAL OF          1 INNER ITERATIONS.
    ------------------------------------------------

 OUTPUT CONTROL FOR STRESS PERIOD    4   TIME STEP    5
    SAVE DRAWDOWN FOR ALL LAYERS
    SAVE BUDGET
    PRINT BUDGET
 UBDSV2 SAVING "   CONSTANT HEAD" ON UNIT   9 AT TIME STEP  5, STRESS PERIOD   4
 UBDSV1 SAVING "FLOW RIGHT FACE " ON UNIT   9 AT TIME STEP  5, STRESS PERIOD   4
 UBDSV1 SAVING "FLOW FRONT FACE " ON UNIT   9 AT TIME STEP  5, STRESS PERIOD   4
 UBDSV1 SAVING "FLOW LOWER FACE " ON UNIT   9 AT TIME STEP  5, STRESS PERIOD   4
 UBDSV4 SAVING "   RIVER LEAKAGE" ON UNIT   9 AT TIME STEP  5, STRESS PERIOD   4
 UBDSV4 SAVING " HEAD DEP BOUNDS" ON UNIT   9 AT TIME STEP  5, STRESS PERIOD   4
 UBDSV3 SAVING "        RECHARGE" ON UNIT   9 AT TIME STEP  5, STRESS PERIOD   4

 SAVING SATURATED THICKNESS AND FLOW TERMS ON UNIT  136 FOR MT3DMS
 BY THE LINK-MT3DMS PACKAGE V7 AT TIME STEP    5, STRESS PERIOD    4


 DRAWDOWN WILL BE SAVED ON UNIT   38 AT END OF TIME STEP    5, STRESS PERIOD    4
1
  VOLUMETRIC BUDGET FOR ENTIRE MODEL AT END OF TIME STEP    5, STRESS PERIOD   4
  ------------------------------------------------------------------------------

     CUMULATIVE VOLUMES      L**3       RATES FOR THIS TIME STEP      L**3/T
     ------------------                 ------------------------

           IN:                                      IN:
           ---                                      ---
             STORAGE =           0.0000               STORAGE =           0.0000
       CONSTANT HEAD =           0.0000         CONSTANT HEAD =           0.0000
       RIVER LEAKAGE =    65911812.0000         RIVER LEAKAGE =        1376.4709
     HEAD DEP BOUNDS =    12658420.0000       HEAD DEP BOUNDS =         265.4572
            RECHARGE =    62846456.0000              RECHARGE =        1298.7177

            TOTAL IN =   141416688.0000              TOTAL IN =        2940.6460

          OUT:                                     OUT:
          ----                                     ----
             STORAGE =           0.0000               STORAGE =           0.0000
       CONSTANT HEAD =           0.0000         CONSTANT HEAD =           0.0000
       RIVER LEAKAGE =   141652240.0000         RIVER LEAKAGE =        2947.0752
     HEAD DEP BOUNDS =           0.0000       HEAD DEP BOUNDS =           0.0000
            RECHARGE =           0.0000              RECHARGE =           0.0000

           TOTAL OUT =   141652240.0000             TOTAL OUT =        2947.0752

            IN - OUT =     -235552.0000              IN - OUT =          -6.4292

 PERCENT DISCREPANCY =          -0.17     PERCENT DISCREPANCY =          -0.22






         TIME SUMMARY AT END OF TIME STEP    5 IN STRESS PERIOD    4
                    SECONDS     MINUTES      HOURS       DAYS        YEARS
                    -----------------------------------------------------------
   TIME STEP LENGTH 2.10384E+08 3.50640E+06  58440.      2435.0      6.6667    
 STRESS PERIOD TIME 1.05192E+09 1.75320E+07 2.92200E+05  12175.      33.333    
         TOTAL TIME 4.14452E+09 6.90754E+07 1.15126E+06  47969.      131.33    
1
 
 SOLVING FOR HEAD 
          0                 1           1           147   79     1      -0.2211079732E-03      25   86    1        -0.1917808317E-02      0.5601557280E-01

    ------------------------------------------------
       NWT REQUIRED            1 OUTER ITERATIONS 
       AND A TOTAL OF          1 INNER ITERATIONS.
    ------------------------------------------------

 OUTPUT CONTROL FOR STRESS PERIOD    4   TIME STEP    6
    SAVE HEAD FOR ALL LAYERS
    SAVE DRAWDOWN FOR ALL LAYERS
    SAVE BUDGET
    PRINT BUDGET
 UBDSV2 SAVING "   CONSTANT HEAD" ON UNIT   9 AT TIME STEP  6, STRESS PERIOD   4
 UBDSV1 SAVING "FLOW RIGHT FACE " ON UNIT   9 AT TIME STEP  6, STRESS PERIOD   4
 UBDSV1 SAVING "FLOW FRONT FACE " ON UNIT   9 AT TIME STEP  6, STRESS PERIOD   4
 UBDSV1 SAVING "FLOW LOWER FACE " ON UNIT   9 AT TIME STEP  6, STRESS PERIOD   4
 UBDSV4 SAVING "   RIVER LEAKAGE" ON UNIT   9 AT TIME STEP  6, STRESS PERIOD   4
 UBDSV4 SAVING " HEAD DEP BOUNDS" ON UNIT   9 AT TIME STEP  6, STRESS PERIOD   4
 UBDSV3 SAVING "        RECHARGE" ON UNIT   9 AT TIME STEP  6, STRESS PERIOD   4

 SAVING SATURATED THICKNESS AND FLOW TERMS ON UNIT  136 FOR MT3DMS
 BY THE LINK-MT3DMS PACKAGE V7 AT TIME STEP    6, STRESS PERIOD    4


 HEAD WILL BE SAVED ON UNIT   37 AT END OF TIME STEP    6, STRESS PERIOD    4

 DRAWDOWN WILL BE SAVED ON UNIT   38 AT END OF TIME STEP    6, STRESS PERIOD    4
1
  VOLUMETRIC BUDGET FOR ENTIRE MODEL AT END OF TIME STEP    6, STRESS PERIOD   4
  ------------------------------------------------------------------------------

     CUMULATIVE VOLUMES      L**3       RATES FOR THIS TIME STEP      L**3/T
     ------------------                 ------------------------

           IN:                                      IN:
           ---                                      ---
             STORAGE =           0.0000               STORAGE =           0.0000
       CONSTANT HEAD =           0.0000         CONSTANT HEAD =           0.0000
       RIVER LEAKAGE =    69263552.0000         RIVER LEAKAGE =        1376.4838
     HEAD DEP BOUNDS =    13304820.0000       HEAD DEP BOUNDS =         265.4619
            RECHARGE =    66008832.0000              RECHARGE =        1298.7177

            TOTAL IN =   148577200.0000              TOTAL IN =        2940.6633

          OUT:                                     OUT:
          ----                                     ----
             STORAGE =           0.0000               STORAGE =           0.0000
       CONSTANT HEAD =           0.0000         CONSTANT HEAD =           0.0000
       RIVER LEAKAGE =   148828288.0000         RIVER LEAKAGE =        2947.0432
     HEAD DEP BOUNDS =           0.0000       HEAD DEP BOUNDS =           0.0000
            RECHARGE =           0.0000              RECHARGE =           0.0000

           TOTAL OUT =   148828288.0000             TOTAL OUT =        2947.0432

            IN - OUT =     -251088.0000              IN - OUT =          -6.3799

 PERCENT DISCREPANCY =          -0.17     PERCENT DISCREPANCY =          -0.22






         TIME SUMMARY AT END OF TIME STEP    6 IN STRESS PERIOD    4
                    SECONDS     MINUTES      HOURS       DAYS        YEARS
                    -----------------------------------------------------------
   TIME STEP LENGTH 2.10384E+08 3.50640E+06  58440.      2435.0      6.6667    
 STRESS PERIOD TIME 1.26230E+09 2.10384E+07 3.50640E+05  14610.      40.000    
         TOTAL TIME 4.35491E+09 7.25818E+07 1.20970E+06  50404.      138.00    
1

 HEAD AND DRAWDOWN OBSERVATIONS
 OBSERVATION       OBSERVED           SIMULATED
   NAME              VALUE              VALUE             DIFFERENCE
 --------------------------------------------------------------------
 SM-1            3517.5400391        3515.8967285        1.6433105469    
 SM-2            3505.1398926        3507.0917969       -1.9519042969    
 SM-3            3503.8300781        3505.3344727       -1.5043945312    
 SM-4            3497.3601074        3499.9008789       -2.5407714844    
 SM-5            3494.1499023        3494.9516602      -0.80175781250    
 SM-6            3510.7900391        3511.2067871      -0.41674804688    

 HEAD/DRAWDOWN SUM OF SQUARED DIFFERENCE:    1.60456E+01

 Run end date and time (yyyy/mm/dd hh:mm:ss): 2021/01/29 11:38:14
 Elapsed run time: 11.048 Seconds

